15   

H        2.1271727195   -1.0610783354   -1.2209014311
C        1.9701893688   -1.0475313146   -0.1458266823
C        3.0517428057   -1.2090828810    0.7250385072
C        2.8496089340   -1.1921315220    2.1114825651
C        1.5750277870   -1.0076546219    2.6408534493
C        0.4892324107   -0.8565627158    1.7591072026
C        0.6850927038   -0.8725829186    0.3736033328
H       -0.1620509529   -0.7512136973   -0.2955391855
H       -0.5139331110   -0.7261677575    2.1592566063
C        1.3363210858   -1.0078906867    4.1002309048
O        0.2532050539   -1.1124340541    4.6203452440
O        2.4619715346   -0.8943598069    4.8444928038
H        2.1478107499   -0.9107939049    5.7603529661
H        3.7101016112   -1.3264404117    2.7620974476
H        4.0522054248   -1.3500603161    0.3259772643
15   

H        2.1246485755   -1.0335628521   -1.2187925006
C        1.9683901831   -1.0309859795   -0.1435314538
C        3.0460752179   -1.2339542749    0.7240822344
C        2.8439259868   -1.2315912278    2.1105048385
C        1.5758537613   -1.0141836917    2.6412106212
C        0.4920512784   -0.8312678871    1.7648207976
C        0.6874143426   -0.8324201972    0.3789799449
H       -0.1568495459   -0.6835797122   -0.2882390980
H       -0.5072635513   -0.6894664882    2.1703980652
C        1.3412581693   -1.0533494998    4.1018494937
O        0.3073782575   -1.3862224383    4.6242210238
O        2.4261665020   -0.7148728761    4.8376129295
H        2.1291393116   -0.7919328854    5.7560191585
H        3.6941602918   -1.4007023363    2.7666503372
H        4.0421695713   -1.3970817696    0.3225631760
15   

H        2.1177427414   -1.0080998408   -1.2164918150
C        1.9639240254   -1.0165793206   -0.1409093851
C        3.0381733152   -1.2615961192    0.7207676581
C        2.8382729610   -1.2736887314    2.1073345668
C        1.5785464729   -1.0245832249    2.6418253198
C        0.4961196712   -0.8062764039    1.7737752170
C        0.6889181030   -0.7926020687    0.3874312001
H       -0.1526121593   -0.6144367962   -0.2760264707
H       -0.4980991918   -0.6504488035    2.1861079209
C        1.3535898644   -1.0994205047    4.1052576715
O        0.4186272776   -1.6454773707    4.6319184925
O        2.3541191050   -0.5472610046    4.8298461317
H        2.0884322673   -0.6796576006    5.7514328974
H        3.6787903259   -1.4750727067    2.7669366007
H        4.0284907825   -1.4467012760    0.3145350359
15   

H        2.1067579968   -0.9837230440   -1.2155329797
C        1.9581497507   -1.0062201444   -0.1394203585
C        3.0296482080   -1.2973252500    0.7117951647
C        2.8360243652   -1.3272288295    2.0988935466
C        1.5870257975   -1.0499551465    2.6422064415
C        0.5058422477   -0.7862392961    1.7866937186
C        0.6923837423   -0.7543488461    0.3996214934
H       -0.1466332085   -0.5407455275   -0.2565002137
H       -0.4808901283   -0.6098333132    2.2079241865
C        1.3771931461   -1.1498765936    4.1105319093
O        0.5893773061   -1.8830917488    4.6473898020
O        2.2370352203   -0.3837863984    4.8190336917
H        2.0121171037   -0.5563643568    5.7446869576
H        3.6699156953   -1.5622543596    2.7556309257
H        4.0120815087   -1.5040849919    0.2969615714
15   

H        2.0896319729   -0.9507848402   -1.2157588919
C        1.9514571723   -0.9933081469   -0.1388603968
C        3.0217374329   -1.3390430204    0.6934663194
C        2.8415350846   -1.3943120820    2.0815637010
C        1.6068433651   -1.0943036303    2.6431602318
C        0.5275849293   -0.7671023059    1.8080147529
C        0.7008691138   -0.7096646848    0.4199576509
H       -0.1361611584   -0.4497361388   -0.2218137483
H       -0.4463779219   -0.5603600557    2.2442966712
C        1.4183744819   -1.2028470139    4.1181755102
O        0.8236908824   -2.0837035743    4.6786892923
O        2.0538538284   -0.2230650882    4.7977139888
H        1.8721250927   -0.4131461271    5.7292836048
H        3.6732251290   -1.6688457074    2.7254173749
H        3.9926299684   -1.5674527368    0.2631001900
15   

H        2.0780869639   -0.9098244932   -1.2148585851
C        1.9525836001   -0.9734704156   -0.1374504885
C        3.0178276028   -1.3854870896    0.6707002905
C        2.8537545594   -1.4680159714    2.0594546257
C        1.6377601395   -1.1415041076    2.6452017903
C        0.5679592258   -0.7298466526    1.8353318269
C        0.7247767996   -0.6452629227    0.4467129542
H       -0.1065117219   -0.3263705353   -0.1756231975
H       -0.3858864139   -0.4777533544    2.2914384102
C        1.4730089987   -1.2405544486    4.1258747246
O        1.1012532053   -2.2147593928    4.7218263265
O        1.7928620860   -0.0917296610    4.7602205759
H        1.6470290368   -0.2803555380    5.6983166760
H        3.6824125208   -1.7907056003    2.6845547667
H        3.9726394241   -1.6427916737    0.2210765718
15   

H        2.0619305540   -0.8790559511   -1.2142895164
C        1.9514689314   -0.9557188252   -0.1360829411
C        3.0114375735   -1.4250732907    0.6471003409
C        2.8664447572   -1.5247666222    2.0368281587
C        1.6710777304   -1.1693990617    2.6487218174
C        0.6126015807   -0.6836254765    1.8642038038
C        0.7500728899   -0.5820616031    0.4747095500
H       -0.0749035525   -0.2118268478   -0.1272518882
H       -0.3175991424   -0.3865752646    2.3416172656
C        1.5383119488   -1.2544280516    4.1318157707
O        1.4097146879   -2.2666544531    4.7662480239
O        1.5123251997   -0.0369491863    4.7172143049
H        1.4069655727   -0.2213639850    5.6615979523
H        3.6920749957   -1.8895793652    2.6426997512
H        3.9478277475   -1.7126200384    0.1774806442
15   

H        2.0487300440   -0.8846249779   -1.2172497812
C        1.9501742313   -0.9588626373   -0.1377213874
C        3.0022856277   -1.4686830321    0.6303329882
C        2.8726607065   -1.5653425127    2.0217252364
C        1.6979208442   -1.1710126480    2.6518016138
C        0.6503157606   -0.6382455719    1.8810792112
C        0.7728995625   -0.5398102847    0.4900028589
H       -0.0447255640   -0.1354404103   -0.0999010780
H       -0.2602932317   -0.3018310878    2.3702874672
C        1.5964290045   -1.2427548451    4.1339544843
O        1.7085418184   -2.2410864406    4.7950790157
O        1.2701735069   -0.0543618621    4.6902068992
H        1.2134937651   -0.2365882501    5.6392942923
H        3.6927052259   -1.9612273062    2.6159949921
H        3.9210373523   -1.7898455870    0.1478212159
15   

H        2.0333501145   -0.9131401262   -1.2227802868
C        1.9445735129   -0.9746813316   -0.1416057247
C        2.9880045950   -1.5117240616    0.6193109563
C        2.8713850995   -1.5919213787    2.0127836059
C        1.7174240984   -1.1528007744    2.6543384806
C        0.6776842840   -0.5944688036    1.8881682258
C        0.7885151233   -0.5127305102    0.4950164743
H       -0.0224157495   -0.0880446636   -0.0898383599
H       -0.2191265044   -0.2252962324    2.3794610412
C        1.6441545613   -1.2154775829    4.1344176728
O        1.9849076384   -2.1537229375    4.8074671940
O        1.0719006431   -0.1194380090    4.6837233510
H        1.0702309448   -0.2973960349    5.6354227272
H        3.6854930969   -2.0097989338    2.6006359357
H        3.8902888097   -1.8671382048    0.1297725054
15   

H        2.0177225486   -0.9530374540   -1.2296520302
C        1.9381298318   -0.9963324810   -0.1468787517
C        2.9725889549   -1.5530642751    0.6115626934
C        2.8683765349   -1.6096800419    2.0070876944
C        1.7361895746   -1.1234446828    2.6558132027
C        0.7023987645   -0.5506986174    1.8890974253
C        0.8022477916   -0.4928392130    0.4939288197
H       -0.0027048583   -0.0551336023   -0.0896010905
H       -0.1835692450   -0.1515308300    2.3766151405
C        1.6838699788   -1.1792633719    4.1339537702
O        2.2303402313   -2.0124054923    4.8120087637
O        0.9059908825   -0.2184951466    4.6851754599
H        0.9565296607   -0.3832716404    5.6379994301
H        3.6777042086   -2.0441224256    2.5899189740
H        3.8587786603   -1.9425883443    0.1185780143
15   

H        1.9967627504   -0.9985480634   -1.2355065961
C        1.9271958182   -1.0218988853   -0.1514282252
C        2.9532645906   -1.5945606810    0.6058808667
C        2.8626774277   -1.6251127168    2.0031200482
C        1.7537231703   -1.0925346466    2.6572694761
C        0.7245644404   -0.5100179091    1.8889144304
C        0.8119460869   -0.4783016232    0.4920858020
H        0.0122856230   -0.0302773010   -0.0909039298
H       -0.1498605651   -0.0810714913    2.3718316906
C        1.7167859944   -1.1395533839    4.1348693982
O        2.4373567390   -1.8226228019    4.8195694351
O        0.7649406027   -0.3496965147    4.6851526524
H        0.8586725397   -0.4877576850    5.6390139999
H        3.6683854276   -2.0734521091    2.5805921263
H        3.8229864307   -2.0170559453    0.1107123199
15   

H        1.9716837248   -1.0475019111   -1.2388639882
C        1.9132133037   -1.0499015275   -0.1538816108
C        2.9316319373   -1.6363231907    0.6029275389
C        2.8559176633   -1.6392787990    2.0013721641
C        1.7711758701   -1.0614683951    2.6583320889
C        0.7462428176   -0.4710201927    1.8892632814
C        0.8193502110   -0.4666599492    0.4912754926
H        0.0247346422   -0.0093775100   -0.0914311308
H       -0.1134980123   -0.0118416803    2.3706635712
C        1.7452535820   -1.0947464362    4.1362315885
O        2.6010901807   -1.5895811598    4.8276185173
O        0.6531705247   -0.5093032819    4.6816360794
H        0.7779855577   -0.6089906025    5.6367401795
H        3.6566943298   -2.0997823792    2.5761517898
H        3.7841533294   -2.0910886684    0.1064277677
15   

H        1.9428077103   -1.0963265465   -1.2386207067
C        1.8962404376   -1.0779963539   -0.1532146870
C        2.9074102021   -1.6776606734    0.6032335755
C        2.8472829559   -1.6530115717    2.0022310415
C        1.7877701653   -1.0308317694    2.6592356365
C        0.7669184549   -0.4332591960    1.8913606269
C        0.8243399254   -0.4558379081    0.4928025498
H        0.0346393816    0.0102377808   -0.0896115485
H       -0.0752454397    0.0541539901    2.3761405271
C        1.7680236527   -1.0466950957    4.1378279895
O        2.7114770644   -1.3258307833    4.8353945750
O        0.5776474087   -0.6891300356    4.6743415783
H        0.7186835492   -0.7414605048    5.6309336343
H        3.6406250753   -2.1237624936    2.5789887353
H        3.7419411239   -2.1639322080    0.1060330610
15   

H        1.9153635443   -1.1385436055   -1.2355605280
C        1.8803409956   -1.1010637988   -0.1502144446
C        2.8824906725   -1.7163504826    0.6063618416
C        2.8371716160   -1.6662333475    2.0052864486
C        1.8045831785   -0.9994947031    2.6597614547
C        0.7894754770   -0.3928889374    1.8941242036
C        0.8314054740   -0.4399965038    0.4956122302
H        0.0476187256    0.0360684628   -0.0866957713
H       -0.0337986012    0.1198997124    2.3852609934
C        1.7840533419   -0.9976994261    4.1397371598
O        2.7616547916   -1.0494982360    4.8426783265
O        0.5419969537   -0.8781654242    4.6641648263
H        0.6825989718   -0.8797198147    5.6221875991
H        3.6205529988   -2.1476986150    2.5866198897
H        3.6978780665   -2.2341903377    0.1092900489
15   

H        1.8897897794   -1.1733130466   -1.2310670922
C        1.8653343504   -1.1182851764   -0.1461795858
C        2.8555604860   -1.7517523286    0.6116653728
C        2.8236111673   -1.6785019759    2.0100256110
C        1.8194261163   -0.9679417384    2.6602269800
C        0.8133144416   -0.3486645966    1.8959982422
C        0.8408637638   -0.4178569783    0.4980390565
H        0.0649290721    0.0702533704   -0.0847951962
H        0.0095096042    0.1890633547    2.3926601376
C        1.7934632355   -0.9448832003    4.1430370010
O        2.7502839752   -0.7666230362    4.8516483970
O        0.5468225292   -1.0710423852    4.6534141581
H        0.6707410670   -1.0213959277    5.6123630478
H        3.5954050481   -2.1730663748    2.5954349532
H        3.6506080065   -2.3015123448    0.1159363367
15   

H        1.8737435311   -1.2017557917   -1.2273509822
C        1.8548470831   -1.1316258347   -0.1432242606
C        2.8265005121   -1.7872610457    0.6201857355
C        2.8015836751   -1.6941567534    2.0176222523
C        1.8244835839   -0.9416422295    2.6591073548
C        0.8359088091   -0.3018939022    1.8917924057
C        0.8555590812   -0.3900062246    0.4947742271
H        0.0933623779    0.1148172216   -0.0919301035
H        0.0524891960    0.2650273841    2.3883426311
C        1.7910699962   -0.8900048866    4.1451899715
O        2.6770102737   -0.4859195492    4.8509845332
O        0.5974275653   -1.2735867453    4.6513717503
H        0.6956725773   -1.1750405177    5.6094022790
H        3.5577809575   -2.2057525939    2.6082064478
H        3.6011914570   -2.3695066256    0.1293581149
15   

H        1.8760000053   -1.2160207379   -1.2250223925
C        1.8528367477   -1.1344717988   -0.1417765185
C        2.7940677067   -1.8190157674    0.6345526649
C        2.7635605273   -1.7112254378    2.0308891714
C        1.8088804705   -0.9196584023    2.6566764989
C        0.8546021602   -0.2450460011    1.8781732491
C        0.8795086066   -0.3474846724    0.4821811810
H        0.1425699028    0.1823018181   -0.1146982844
H        0.0943227430    0.3599545065    2.3653954016
C        1.7699864762   -0.8345619914    4.1451889787
O        2.5399579867   -0.2183024690    4.8314923067
O        0.7111832453   -1.4888667263    4.6709670548
H        0.7854310751   -1.3477764577    5.6257187193
H        3.4961592711   -2.2446401064    2.6313905353
H        3.5494059972   -2.4346848060    0.1544817831
15   

H        1.9106460703   -1.2132801073   -1.2245240682
C        1.8684750996   -1.1259020924   -0.1423056091
C        2.7633787609   -1.8466283454    0.6560121915
C        2.7082077333   -1.7317931572    2.0510529156
C        1.7676188039   -0.9061614372    2.6526979286
C        0.8706336532   -0.1813081020    1.8528038648
C        0.9201926904   -0.2911098486    0.4579934839
H        0.2238361948    0.2723213667   -0.1565536204
H        0.1363156347    0.4686373673    2.3215827985
C        1.7235761227   -0.7864501195    4.1403386036
O        2.3327034541    0.0170083868    4.7929140153
O        0.9060157149   -1.6989685557    4.7090249384
H        0.9623971596   -1.5211184765    5.6587942674
H        3.4062958419   -2.2911157852    2.6686158619
H        3.5024427186   -2.4949348321    0.1939343639
15   

H        1.9514555212   -1.2012044463   -1.2237350125
C        1.8846816311   -1.1143272217   -0.1427149055
C        2.7255911542   -1.8757528917    0.6763713916
C        2.6387882206   -1.7617532588    2.0698602660
C        1.7112776663   -0.9050374246    2.6491887030
C        0.8813206561   -0.1260246704    1.8284342381
C        0.9625980642   -0.2353318729    0.4350660441
H        0.3135455385    0.3652706048   -0.1958543437
H        0.1751395534    0.5660211608    2.2801739052
C        1.6627576143   -0.7599503163    4.1322825295
O        2.0749834754    0.1840236460    4.7509227253
O        1.1552832987   -1.8515520385    4.7458415526
H        1.1939182490   -1.6422658029    5.6901321295
H        3.2972811928   -2.3501734294    2.7037161696
H        3.4482907299   -2.5539650385    0.2316783183
15   

H        1.9884299828   -1.1981703235   -1.2223632861
C        1.8991816568   -1.1130889629   -0.1428241245
C        2.6940523562   -1.9055293276    0.6924230715
C        2.5786730363   -1.7936296870    2.0840381168
C        1.6632396550   -0.9118325715    2.6466059170
C        0.8864701312   -0.0964241020    1.8086655804
C        0.9963903046   -0.2033951672    0.4171704020
H        0.3858243354    0.4242321755   -0.2257639908
H        0.1995253176    0.6232898642    2.2472013133
C        1.5962129775   -0.7529458054    4.1231748595
O        1.7812220763    0.2768979128    4.7161909590
O        1.3883111854   -1.9219370199    4.7700394195
H        1.3892658496   -1.6851640023    5.7087315437
H        3.2045963110   -2.4055576897    2.7287705510
H        3.4041899608   -2.6057731244    0.2618712137
15   

H        2.0149235215   -1.1944405659   -1.2224269070
C        1.9110597543   -1.1123862734   -0.1439608306
C        2.6681565550   -1.9321817242    0.6994085811
C        2.5343863698   -1.8244260447    2.0897928548
C        1.6372779206   -0.9181442789    2.6452156359
C        0.8985683793   -0.0769151817    1.7970067073
C        1.0272061646   -0.1795197911    0.4069590154
H        0.4454536761    0.4694433631   -0.2415030011
H        0.2252641828    0.6605093099    2.2278642503
C        1.5411089085   -0.7595789055    4.1160822823
O        1.4896697931    0.2955813614    4.6937461185
O        1.5886822040   -1.9344703495    4.7856599232
H        1.5340273600   -1.6844123189    5.7194288191
H        3.1353296444   -2.4599925296    2.7355654271
H        3.3639640065   -2.6510302307    0.2761753633
15   

H        2.0401940446   -1.1866200393   -1.2236675346
C        1.9256910237   -1.1083698361   -0.1459961524
C        2.6489163803   -1.9537293003    0.7011562292
C        2.5017305012   -1.8517560583    2.0907516065
C        1.6270662862   -0.9213713044    2.6441669162
C        0.9177642696   -0.0597442083    1.7893953200
C        1.0602901765   -0.1566534191    0.4005044356
H        0.5019694721    0.5104050412   -0.2502084469
H        0.2537798000    0.6897797070    2.2143296770
C        1.4956755607   -0.7734985858    4.1107632085
O        1.2113619973    0.2520745689    4.6764041840
O        1.7686030893   -1.9065827956    4.7996544211
H        1.6505341575   -1.6593153045    5.7283911494
H        3.0806703138   -2.5125371628    2.7312364870
H        3.3291008518   -2.6893833368    0.2814011628
15   

H        2.0648570506   -1.1740127567   -1.2244985173
C        1.9406987043   -1.1009768899   -0.1475289360
C        2.6308896727   -1.9717989875    0.7007447489
C        2.4713793375   -1.8776009104    2.0896492677
C        1.6211153547   -0.9241296484    2.6435138879
C        0.9377959287   -0.0436260914    1.7850007422
C        1.0931464987   -0.1330621923    0.3971584371
H        0.5565634058    0.5511393305   -0.2540569148
H        0.2815451530    0.7154860127    2.2051759303
C        1.4546566499   -0.7934309211    4.1070616868
O        0.9511186087    0.1524007142    4.6606327138
O        1.9392483255   -1.8416977472    4.8143180510
H        1.7608571824   -1.6120755807    5.7380156065
H        3.0265221684   -2.5652988095    2.7226376465
H        3.2946146671   -2.7230494392    0.2822452205
15   

H        2.0869134862   -1.1573567494   -1.2238971921
C        1.9531979071   -1.0915837090   -0.1476030392
C        2.6109763262   -1.9883130875    0.6991181681
C        2.4389648236   -1.9040534453    2.0872114912
C        1.6135344168   -0.9298471498    2.6431869150
C        0.9544077915   -0.0303193307    1.7846256561
C        1.1225172441   -0.1098426245    0.3977283137
H        0.6071072045    0.5915444448   -0.2523109798
H        0.3061437251    0.7364525745    2.2033544774
C        1.4158270656   -0.8205743991    4.1043664813
O        0.7150869652    0.0001981621    4.6434598662
O        2.0995468098   -1.7382239633    4.8286323124
H        1.8698877876   -1.5386221321    5.7479960379
H        2.9660070348   -2.6178585418    2.7151962456
H        3.2580459546   -2.7535749397    0.2799109718
