6    

H       -0.5705910322   -0.0581729390   -0.7701386099
C        0.0265059673    0.3286329349    0.0624006965
H       -0.6519150790    0.6984564906    0.8385535180
O        0.8557889299   -0.6603361629    0.5687624673
H        0.3697193641   -1.4836917489    0.6802303178
Br       1.1586915796    1.7754620708   -0.5756472037
6    

H       -0.5661177184   -0.0845076386   -0.7427111315
C        0.0176068155    0.3321313926    0.0848333523
H       -0.6742317229    0.7381487367    0.8304799204
O        0.8212929711   -0.6421280780    0.6507245824
H        0.4136821729   -1.5103742030    0.5776212171
Br       1.1692769711    1.7554480840   -0.6005019863
6    

H       -0.5743605287   -0.1069951572   -0.7173382487
C        0.0036063445    0.3310030749    0.1031336618
H       -0.6956962939    0.7764275961    0.8187268314
O        0.7673522067   -0.6344618439    0.7259357844
H        0.4809464643   -1.5203883071    0.4858342521
Br       1.1874073467    1.7302178679   -0.6185521633
6    

H       -0.5979486731   -0.1224580823   -0.6929472253
C       -0.0146778335    0.3262494777    0.1179106011
H       -0.7124100474    0.8118839458    0.8084478717
O        0.6999665310   -0.6364018102    0.7873007636
H        0.5667291852   -1.5107505104    0.4089978283
Br       1.2109381148    1.6979772278   -0.6321342789
6    

H       -0.2599406257   -0.1132685593   -0.9354065716
C       -0.0530068624    0.2861478884    0.0629533344
H       -1.0045715098    0.6185887741    0.4913584974
O        0.4857228643   -0.6808204081    0.8633352535
H        0.8221988197   -1.4253920060    0.3532513752
Br       1.1653800933    1.8663572854   -0.0828251648
6    

H       -0.3003972496   -0.1112092280   -0.9358472916
C       -0.0763870936    0.2780318145    0.0628924880
H       -1.0150398461    0.6475784096    0.4893891357
O        0.4121303314   -0.7123610297    0.8589668526
H        0.9225117354   -1.3576735053    0.3551127491
Br       1.2029446674    1.8166542677   -0.0823387185
6    

H       -0.3428556179   -0.0963839655   -0.9411466748
C       -0.0986843349    0.2718448672    0.0608848946
H       -1.0201716685    0.6726075719    0.4965350894
O        0.3506349801   -0.7494746197    0.8376581246
H        1.0134388172   -1.2794658174    0.3760676553
Br       1.2388736074    1.7587335944   -0.0823001346
6    

H       -0.3858009257   -0.0685269801   -0.9508172966
C       -0.1171924212    0.2683668356    0.0560238990
H       -1.0179321673    0.6930093112    0.5119740282
O        0.3026500753   -0.7917456530    0.8006290524
H        1.0910032222   -1.1983819384    0.4167365848
Br       1.2697432603    1.6981847423   -0.0830490317
6    

H       -0.4302923716   -0.0323196185   -0.9629784085
C       -0.1308747877    0.2646684233    0.0477614473
H       -1.0083222469    0.7028351206    0.5352409198
O        0.2692542623   -0.8380401857    0.7477081564
H        1.1518012016   -1.1233807069    0.4773341183
Br       1.2926174216    1.6446482092   -0.0870725631
6    

H       -0.4744665090    0.0114994672   -0.9763279278
C       -0.1379202271    0.2621609083    0.0353002704
H       -0.9903349579    0.7027221501    0.5633393194
O        0.2513387554   -0.8849762839    0.6811041859
H        1.1919756744   -1.0600821392    0.5556259292
Br       1.3067299337    1.6027725353   -0.0941469222
6    

H       -0.5169612740    0.0565819949   -0.9889623826
C       -0.1394461515    0.2585205691    0.0191075890
H       -0.9660553584    0.6897831325    0.5937798953
O        0.2490553683   -0.9282219899    0.6033881813
H        1.2083814522   -1.0099822520    0.6461968028
Br       1.3139865548    1.5763468926   -0.1037999700
6    

H       -0.5565276818    0.0974900631   -0.9984739601
C       -0.1369423178    0.2528388716    0.0011881002
H       -0.9368461992    0.6646303956    0.6257607076
O        0.2623554178   -0.9632881261    0.5193244349
H        1.1995706802   -0.9710181467    0.7414743083
Br       1.3173629474    1.5651724938   -0.1165163957
6    

H       -0.5925378762    0.1316624771   -1.0024564500
C       -0.1313884678    0.2461613851   -0.0156689050
H       -0.9029745708    0.6316744466    0.6592655289
O        0.2892211148   -0.9870997005    0.4346908973
H        1.1649078092   -0.9434950191    0.8348089703
Br       1.3201677998    1.5664709752   -0.1340668405
6    

H       -0.6250050959    0.1565087385   -0.9984217905
C       -0.1230715823    0.2396502919   -0.0285349156
H       -0.8655831401    0.5944414075    0.6941586526
O        0.3282462997   -0.9985999640    0.3556470561
H        1.1071360904   -0.9316587934    0.9213806572
Br       1.3210540778    1.5806252183   -0.1596583155
6    

H       -0.6526299942    0.1708370240   -0.9858694707
C       -0.1113872168    0.2352533965   -0.0358973131
H       -0.8261567614    0.5580303538    0.7285419323
O        0.3774350281   -0.9984456838    0.2882830578
H        1.0308205092   -0.9410299855    0.9976488602
Br       1.3169336847    1.6075746076   -0.1952333407
6    

H       -0.6722220961    0.1750943548   -0.9670726207
C       -0.0951204216    0.2348364147   -0.0381330478
H       -0.7857161384    0.5279667834    0.7596951330
O        0.4350534840   -0.9885876171    0.2371669014
H        0.9413891649   -0.9733144171    1.0604121375
Br       1.3051297936    1.6446851914   -0.2392665551
6    

H       -0.6829711954    0.1681754810   -0.9455324693
C       -0.0759810870    0.2376205688   -0.0365323941
H       -0.7470312837    0.5064585506    0.7860836366
O        0.4992795391   -0.9702849559    0.2051087478
H        0.8434556474   -1.0239495674    1.1061796402
Br       1.2858670524    1.6876943998   -0.2876829556
6    

H       -0.6846223569    0.1532932856   -0.9236305878
C       -0.0541035143    0.2444418254   -0.0327484379
H       -0.7084654809    0.4974829174    0.8080552942
O        0.5686652282   -0.9449394665    0.1926044476
H        0.7418319019   -1.0861820341    1.1311410242
Br       1.2612784149    1.7286160395   -0.3363304650
6    

H       -0.6783551623    0.1306066309   -0.9036326447
C       -0.0317514077    0.2540993244   -0.0283176442
H       -0.6718819144    0.5012312749    0.8250499925
O        0.6415120808   -0.9122691955    0.2000685532
H        0.6407428297   -1.1527422561    1.1327858300
Br       1.2338911660    1.7630614695   -0.3804350573
6    

H       -0.6655053561    0.1028132798   -0.8857488720
C       -0.0106182736    0.2672342124   -0.0234255766
H       -0.6399176849    0.5192526371    0.8365178604
O        0.7145065452   -0.8715399421    0.2273489730
H        0.5460383080   -1.2178260418    1.1088566386
Br       1.2066279175    1.7868277891   -0.4178072392
6    

H       -0.6485089442    0.0703675945   -0.8673387472
C        0.0070418498    0.2813309860   -0.0157236117
H       -0.6177888243    0.5475258448    0.8432229570
O        0.7794815098   -0.8248474683    0.2724918507
H        0.4640668712   -1.2806980957    1.0581460728
Br       1.1837256052    1.7998394336   -0.4510328176
6    

H       -0.6278502292    0.0361182415   -0.8468551859
C        0.0202152108    0.2955345926   -0.0029394281
H       -0.6096614544    0.5819239875    0.8458177700
O        0.8292244082   -0.7759765323    0.3327646787
H        0.4010101576   -1.3405730816    0.9833066522
Br       1.1676640157    1.8038219900   -0.4828482425
6    

H       -0.6054351978    0.0023742231   -0.8235911147
C        0.0279370110    0.3091127819    0.0155685208
H       -0.6155317640    0.6194394646    0.8455749014
O        0.8598532687   -0.7292997456    0.4051711012
H        0.3628959842   -1.3956224897    0.8906087906
Br       1.1580037709    1.8004475411   -0.5146712852
6    

H       -0.5848909474   -0.0292724144   -0.7976977705
C        0.0300331009    0.3205165246    0.0382941858
H       -0.6311833485    0.6585109242    0.8432283816
O        0.8687437554   -0.6898228926    0.4854328259
H        0.3520975846   -1.4443088187    0.7870949006
Br       1.1552147913    1.7905936092   -0.5461351047
