15   

H        1.8844836765   -1.1974123606   -1.1372589022
C        1.8989259284   -1.1491083472   -0.0516466800
C        2.9606300973   -1.7132796543    0.6606462836
C        2.9827073758   -1.6488145462    2.0589068227
C        1.9377002229   -1.0273815866    2.7676382798
C        0.8787644827   -0.4514126998    2.0340867707
C        0.8609360256   -0.5150096821    0.6358011281
H        0.0425690622   -0.0641627653    0.0808541442
H        0.0688492788    0.0724080836    2.5336909588
C        1.9680897212   -0.9741908872    4.2380961931
O        2.9986689886   -1.1458832446    4.8281131912
O        0.8177008376   -0.7689023661    4.9117254249
H        0.0392105000   -0.8750360873    4.3499263529
H        3.8160620762   -2.0885551890    2.6033533364
H        3.7727306805   -2.2015697742    0.1292296958
15   

H        1.8836718585   -1.2629981906   -1.1392467895
C        1.8975127141   -1.2018933921   -0.0542875725
C        2.9496610736   -1.7733278872    0.6666802419
C        2.9716340163   -1.6911776528    2.0642054368
C        1.9362438581   -1.0429532950    2.7629972878
C        0.8870036295   -0.4610362720    2.0206422998
C        0.8685938049   -0.5432199700    0.6235269554
H        0.0576312986   -0.0865567193    0.0625074311
H        0.0863571755    0.0823209253    2.5150182161
C        1.9669692172   -0.9570638609    4.2318026208
O        2.9798986341   -1.1865614993    4.8318058916
O        0.8201798788   -0.6788194542    4.8963881059
H        0.0378185925   -0.9607088413    4.4072844056
H        3.7987830698   -2.1346423800    2.6149668937
H        3.7551668901   -2.2796963880    0.1422476203
15   

H        1.8958464095   -1.3125102560   -1.1453674892
C        1.9057391063   -1.2419793965   -0.0609629462
C        2.9499775020   -1.8156619176    0.6699170007
C        2.9671768838   -1.7205234869    2.0668721073
C        1.9351400124   -1.0554407397    2.7547953494
C        0.8935592732   -0.4730697540    2.0023556163
C        0.8794322130   -0.5687217231    0.6062337201
H        0.0740207638   -0.1107309230    0.0383786444
H        0.0955352618    0.0802659263    2.4903531375
C        1.9609908645   -0.9456829309    4.2222495775
O        2.9519525252   -1.2278115673    4.8353835352
O        0.8187592339   -0.5923984266    4.8733959186
H        0.0425716754   -1.0278574338    4.5047499681
H        3.7891117475   -2.1644873820    2.6248655805
H        3.7535241832   -2.3330198718    0.1533419478
15   

H        1.9219850775   -1.3339037662   -1.1566112684
C        1.9244077410   -1.2605672627   -0.0723836201
C        2.9607630478   -1.8366259057    0.6679748993
C        2.9681699559   -1.7376314429    2.0649093956
C        1.9345623465   -1.0648784030    2.7430507045
C        0.9005084321   -0.4818451673    1.9810000737
C        0.8957450342   -0.5817046521    0.5852589257
H        0.0954014030   -0.1228571675    0.0110254905
H        0.0999442510    0.0732115160    2.4631304172
C        1.9493363838   -0.9460740059    4.2102333606
O        2.9157964688   -1.2750075839    4.8379326195
O        0.8161977537   -0.5119863117    4.8460295134
H        0.0570666120   -1.0666835643    4.6424416260
H        3.7843992425   -2.1830197614    2.6299488704
H        3.7659081078   -2.3585347408    0.1586074885
15   

H        1.9614634296   -1.3224340045   -1.1733840720
C        1.9526726761   -1.2536206379   -0.0889320729
C        2.9803810272   -1.8339665581    0.6601879448
C        2.9726488738   -1.7413396380    2.0576720274
C        1.9329494799   -1.0694582895    2.7274540210
C        0.9072905063   -0.4834517282    1.9565383663
C        0.9172720997   -0.5772475004    0.5605040408
H        0.1222448148   -0.1165716510   -0.0195397020
H        0.0997825431    0.0659337272    2.4336923050
C        1.9291472176   -0.9585095122    4.1957072780
O        2.8728462897   -1.3253088097    4.8365547622
O        0.8133990387   -0.4410092316    4.8144934309
H        0.0849154923   -1.0676539482    4.8165609711
H        3.7819496601   -2.1906306001    2.6293860561
H        3.7902679103   -2.3546195547    0.1571884180
15   

H        2.0124654501   -1.2864602666   -1.1912257999
C        1.9887846233   -1.2287813509   -0.1063857230
C        3.0061180401   -1.8165384318    0.6511124936
C        2.9781710550   -1.7394021781    2.0493699564
C        1.9290777940   -1.0744439611    2.7116036931
C        0.9136987289   -0.4819079457    1.9321022966
C        0.9434617585   -0.5606442333    0.5354837903
H        0.1549003099   -0.0960664919   -0.0501632771
H        0.0962673196    0.0568994338    2.4044493796
C        1.8997871848   -0.9847667810    4.1816034081
O        2.8238412094   -1.3846559978    4.8327016725
O        0.8135931305   -0.3839986397    4.7813436128
H        0.1343853978   -1.0226276622    5.0130069205
H        3.7788249698   -2.1957560932    2.6274544386
H        3.8230969660   -2.3317395367    0.1541016275
15   

H        2.0645179578   -1.2497837526   -1.2060673918
C        2.0244718155   -1.2045379209   -0.1211521882
C        3.0313949644   -1.7988744217    0.6450826116
C        2.9814331986   -1.7388885353    2.0436503305
C        1.9210706917   -1.0834297971    2.6976862304
C        0.9160186827   -0.4850773753    1.9090874415
C        0.9674208138   -0.5471009827    0.5123207981
H        0.1854469088   -0.0791689214   -0.0793889586
H        0.0874556984    0.0417512996    2.3755845745
C        1.8644636305   -1.0161122555    4.1688072952
O        2.7727895320   -1.4447172497    4.8270557774
O        0.8119089140   -0.3497498152    4.7476210989
H        0.2118246188   -0.9482730340    5.2015791505
H        3.7735141361   -2.2016842594    2.6282177729
H        3.8568847490   -2.3066989386    0.1546817418
15   

H        2.1054615202   -1.2293168736   -1.2160851681
C        2.0505469262   -1.1936035489   -0.1314905830
C        3.0484514941   -1.7918685662    0.6434522617
C        2.9786935295   -1.7449686965    2.0417457030
C        1.9079328115   -1.0974943660    2.6870041746
C        0.9117499079   -0.4960081598    1.8893576185
C        0.9825254011   -0.5455196426    0.4929999208
H        0.2063013031   -0.0760385218   -0.1049737620
H        0.0733155926    0.0209169031    2.3493629718
C        1.8283876185   -1.0446254665    4.1582480503
O        2.7179557128   -1.5064188120    4.8231435473
O        0.8069598146   -0.3320784798    4.7179659736
H        0.3143662119   -0.8554760994    5.3592634566
H        3.7635660281   -2.2116511970    2.6327669152
H        3.8820105738   -2.2931028570    0.1600463697
15   

H        2.1395090283   -1.2160518941   -1.2221904319
C        2.0722376821   -1.1858943471   -0.1381392685
C        3.0670551100   -1.7782298487    0.6453619698
C        2.9811084296   -1.7386673023    2.0430524038
C        1.8969731588   -1.1044945753    2.6790795186
C        0.9035599228   -0.5098802640    1.8727678424
C        0.9906994412   -0.5516406781    0.4771425449
H        0.2160988545   -0.0875763407   -0.1271111896
H        0.0537553296   -0.0056941616    2.3261863639
C        1.7990665535   -1.0595178949    4.1496603314
O        2.6824184080   -1.5241133775    4.8236025509
O        0.7732467616   -0.3583028982    4.6950932323
H        0.4261062690   -0.8001900064    5.4800685747
H        3.7633090165   -2.2012050254    2.6407306328
H        3.9105154653   -2.2695195649    0.1690294507
15   

H        2.1597700617   -1.2033975878   -1.2262337169
C        2.0832727978   -1.1788253867   -0.1426622973
C        3.0755147387   -1.7681135599    0.6464388305
C        2.9774429903   -1.7359841027    2.0435511678
C        1.8837192599   -1.1121802072    2.6732774452
C        0.8926063855   -0.5213409563    1.8614183604
C        0.9918902809   -0.5555261485    0.4664158676
H        0.2186551064   -0.0946668066   -0.1420083767
H        0.0346211007   -0.0271832505    2.3105994693
C        1.7732893668   -1.0739759448    4.1431246634
O        2.6438080444   -1.5545251973    4.8245058725
O        0.7399032048   -0.3917489861    4.6808940055
H        0.5371981302   -0.7272174910    5.5654997440
H        3.7573432440   -2.1965562306    2.6456725382
H        3.9261449161   -2.2515690030    0.1748891214
15   

H        2.1789662160   -1.1891794360   -1.2286798890
C        2.0952154833   -1.1693746817   -0.1455524683
C        3.0879678113   -1.7519986146    0.6479200739
C        2.9803162002   -1.7262612456    2.0444847117
C        1.8762591122   -1.1158460338    2.6690379127
C        0.8843831346   -0.5322796982    1.8529577226
C        0.9934511019   -0.5596216185    0.4585602393
H        0.2193248692   -0.1046452684   -0.1531445704
H        0.0177765971   -0.0501306564    2.2987463669
C        1.7556163487   -1.0842057432    4.1380139996
O        2.6168335977   -1.5726145196    4.8267461092
O        0.6983563091   -0.4452919620    4.6712270085
H        0.6316778721   -0.6531536498    5.6154453424
H        3.7600923967   -2.1822256973    2.6502287140
H        3.9461096383   -2.2257398573    0.1801523516
15   

H        2.1947374270   -1.1718991994   -1.2287321825
C        2.1059673718   -1.1574189432   -0.1459220207
C        3.1015893047   -1.7322258428    0.6496946346
C        2.9872788702   -1.7136386173    2.0458614990
C        1.8733663981   -1.1187168561    2.6677320600
C        0.8783520451   -0.5435258965    1.8495567302
C        0.9943765959   -0.5631388374    0.4556082875
H        0.2175954259   -0.1149157827   -0.1577180083
H        0.0034216822   -0.0748250416    2.2934684436
C        1.7453979085   -1.0948666235    4.1361303246
O        2.6008502046   -1.5892391563    4.8282333557
O        0.6573499088   -0.5109972470    4.6661220628
H        0.6999389110   -0.5653211222    5.6333332705
H        3.7687698396   -2.1642752195    2.6533678605
H        3.9668079038   -2.1948618267    0.1838598771
15   

H        2.2009823211   -1.1492780177   -1.2274091502
C        2.1103884387   -1.1418743883   -0.1446767934
C        3.1112078690   -1.7098785579    0.6492616144
C        2.9944055495   -1.7007240902    2.0452979457
C        1.8725226191   -1.1226133828    2.6688220045
C        0.8719832431   -0.5547473604    1.8522414745
C        0.9908374569   -0.5643547671    0.4584089364
H        0.2096733881   -0.1221328556   -0.1537022920
H       -0.0099696110   -0.1004092206    2.2971438722
C        1.7418525834   -1.1091454935    4.1372193448
O        2.5956212908   -1.6110535645    4.8255198551
O        0.6233568342   -0.5811941972    4.6668987331
H        0.7380839982   -0.4603478616    5.6215896631
H        3.7795792432   -2.1469069133    2.6513535959
H        3.9821295112   -2.1604598216    0.1822318279
15   

H        2.2026982601   -1.1256000684   -1.2237545673
C        2.1119336533   -1.1268835736   -0.1410067729
C        3.1182433236   -1.6906765754    0.6489068276
C        3.0011361312   -1.6930437348    2.0449202831
C        1.8732987705   -1.1310628095    2.6726769465
C        0.8668932593   -0.5679385662    1.8599346457
C        0.9863274380   -0.5656068244    0.4660953631
H        0.2005690486   -0.1274434602   -0.1430521194
H       -0.0207100991   -0.1274566393    2.3074055682
C        1.7425057022   -1.1297618481    4.1413487381
O        2.5948292523   -1.6432847721    4.8216789977
O        0.5999696414   -0.6453359559    4.6728183693
H        0.7515957899   -0.3386902404    5.5778783972
H        3.7903773561   -2.1366870327    2.6475811676
H        3.9934779085   -2.1295422470    0.1787777590
15   

H        2.2024832848   -1.1019420196   -1.2185552623
C        2.1119030361   -1.1140218045   -0.1358497934
C        3.1223028306   -1.6781151451    0.6485533361
C        3.0053607516   -1.6947184756    2.0444543026
C        1.8737110167   -1.1466511026    2.6777359804
C        0.8627486123   -0.5838432545    1.8704088994
C        0.9821279202   -0.5671828462    0.4766448778
H        0.1928273799   -0.1297608100   -0.1284592337
H       -0.0290767866   -0.1558072232    2.3213995246
C        1.7438508674   -1.1595768666    4.1464720475
O        2.5897002815   -1.6921276373    4.8182492012
O        0.5891191364   -0.6919566598    4.6844649821
H        0.7563617458   -0.2017551547    5.4991357891
H        3.7976019484   -2.1390575150    2.6427141589
H        4.0004589149   -2.1065293790    0.1742256439
15   

H        2.1953620832   -1.0663957002   -1.2108952967
C        2.1066659723   -1.0919018056   -0.1282508897
C        3.1239649204   -1.6550174505    0.6478126383
C        3.0094449560   -1.6892360869    2.0435219848
C        1.8734317004   -1.1600160360    2.6850124434
C        0.8549398218   -0.5989612153    1.8860769750
C        0.9721575104   -0.5643093723    0.4924003095
H        0.1772359659   -0.1287143064   -0.1066535908
H       -0.0417697157   -0.1876459916    2.3427173351
C        1.7466811696   -1.1926938506    4.1535312613
O        2.5937540428   -1.7314971790    4.8159724646
O        0.5843044840   -0.7355723178    4.7051138892
H        0.7466948565   -0.0720224771    5.3842213722
H        3.8068019464   -2.1332920798    2.6352648084
H        4.0054396422   -2.0694162465    0.1671737233
15   

H        2.1905494539   -1.0213850476   -1.1987900129
C        2.1017224464   -1.0645437818   -0.1166906774
C        3.1207572713   -1.6369291679    0.6502440478
C        3.0057342795   -1.6948524366    2.0450561546
C        1.8682757947   -1.1791145503    2.6946409241
C        0.8474465607   -0.6093564121    1.9051305798
C        0.9649123335   -0.5516541390    0.5121774572
H        0.1680561828   -0.1106940659   -0.0803919742
H       -0.0525479890   -0.2119830335    2.3675036304
C        1.7415560525   -1.2388603941    4.1617148102
O        2.5707986420   -1.8107868799    4.8154003260
O        0.6010662935   -0.7318610651    4.7354519092
H        0.7746081666    0.0716806668    5.2340629708
H        3.8038337630   -2.1467398894    2.6299716388
H        4.0036908674   -2.0406484030    0.1631596786
15   

H        2.1933792632   -0.9585854735   -1.1807846073
C        2.1027746489   -1.0221919478   -0.0998078989
C        3.1220310787   -1.6064641972    0.6578011700
C        3.0042624680   -1.6921108294    2.0508733536
C        1.8645704046   -1.1913437182    2.7078771010
C        0.8429096621   -0.6101916642    1.9280133773
C        0.9629552521   -0.5253097861    0.5366066700
H        0.1652611180   -0.0772830009   -0.0495675125
H       -0.0614256764   -0.2288795597    2.3953441123
C        1.7335516212   -1.2860274488    4.1720040923
O        2.5470794022   -1.8862187993    4.8167186007
O        0.6300193536   -0.7166803774    4.7707449260
H        0.8012632659    0.1859191574    5.0515072455
H        3.8016599163   -2.1543664612    2.6287697946
H        4.0068340123   -1.9987486305    0.1647055997
15   

H        2.1961007296   -0.8972082721   -1.1598411339
C        2.1040407567   -0.9793034294   -0.0801958070
C        3.1227999035   -1.5758673822    0.6684081403
C        3.0027459101   -1.6868010424    2.0594085228
C        1.8620060937   -1.1980355376    2.7233575401
C        0.8401420844   -0.6051520118    1.9526603071
C        0.9623455773   -0.4955683166    0.5631039874
H        0.1643443637   -0.0402825863   -0.0171117846
H       -0.0679733416   -0.2380975063    2.4240059182
C        1.7266546409   -1.3254933139    4.1840171593
O        2.5229916889   -1.9593575847    4.8163591587
O        0.6772039887   -0.6878346228    4.8066287560
H        0.8181736138    0.2612559474    4.8588873728
H        3.7989631578   -2.1598030145    2.6303676174
H        4.0085916446   -1.9589578417    0.1697905384
15   

H        2.1842858677   -0.8585685913   -1.1414691889
C        2.0943929059   -0.9525340228   -0.0625699915
C        3.1143862609   -1.5582419789    0.6768472776
C        2.9970446431   -1.6853268268    2.0665815403
C        1.8585861077   -1.2025961886    2.7386681490
C        0.8345081672   -0.6014871293    1.9771894619
C        0.9539606833   -0.4762325617    0.5886181670
H        0.1545058268   -0.0157772876    0.0144336528
H       -0.0748358097   -0.2435720199    2.4530366738
C        1.7265393064   -1.3498761132    4.1973771368
O        2.5034087052   -2.0224237029    4.8141474954
O        0.7378277358   -0.6540267079    4.8415011394
H        0.8070926336    0.2927333846    4.6857291610
H        3.7938470406   -2.1659206313    2.6305018547
H        3.9988862182   -1.9363354968    0.1720625049
15   

H        2.1519470534   -0.8483858261   -1.1305819387
C        2.0684035503   -0.9471877340   -0.0515711152
C        3.0908379831   -1.5603843559    0.6780511782
C        2.9819753494   -1.6937059289    2.0677292096
C        1.8505833016   -1.2086835805    2.7499160779
C        0.8228027510   -0.6013037808    1.9982719268
C        0.9337163836   -0.4703466797    0.6093681703
H        0.1321182907   -0.0054458878    0.0417324398
H       -0.0838830145   -0.2448950033    2.4799958684
C        1.7320799397   -1.3605367496    4.2090372779
O        2.4827995999   -2.0780554326    4.8083043997
O        0.8064534336   -0.6146942322    4.8726871738
H        0.7703461006    0.2910990003    4.5467632775
H        3.7807977427   -2.1795556720    2.6243892343
H        3.9708265635   -1.9392074211    0.1658895909
15   

H        2.1034292216   -0.8647310919   -1.1265608764
C        2.0299456608   -0.9618835097   -0.0466426194
C        3.0549666285   -1.5824804758    0.6727595891
C        2.9596151567   -1.7129562282    2.0635120065
C        1.8403929936   -1.2166600728    2.7574641415
C        0.8086383177   -0.6030544922    2.0161181764
C        0.9059081473   -0.4755929991    0.6256806384
H        0.1022867294   -0.0056258950    0.0650845725
H       -0.0911826868   -0.2394309679    2.5047687954
C        1.7446312744   -1.3600023303    4.2189677666
O        2.4629322401   -2.1234549509    4.8019628397
O        0.8796504269   -0.5710367319    4.8998210819
H        0.7136785513    0.2641547569    4.4462994831
H        3.7609920363   -2.2031275216    2.6127859870
H        3.9269218512   -1.9684231469    0.1521631964
15   

H        2.0483722529   -0.9004096419   -1.1277966596
C        1.9860120179   -0.9912916728   -0.0466179421
C        3.0102244149   -1.6234072516    0.6635124570
C        2.9298574181   -1.7445978138    2.0558593110
C        1.8278837157   -1.2264032370    2.7613005800
C        0.7957480127   -0.6018667842    2.0292944609
C        0.8776487818   -0.4847285462    0.6367658106
H        0.0748306057   -0.0057041337    0.0827151058
H       -0.0926445962   -0.2202690568    2.5243671112
C        1.7595380070   -1.3521456080    4.2260588572
O        2.4386596347   -2.1607815522    4.7957903969
O        0.9540626887   -0.5217672158    4.9195987469
H        0.6435407285    0.2201966115    4.3848134531
H        3.7315665390   -2.2416880494    2.5984804245
H        3.8706043495   -2.0242022505    0.1348841164
15   

H        1.9917913956   -0.9392917184   -1.1330658543
C        1.9428055271   -1.0198662904   -0.0503771954
C        2.9616869845   -1.6703965839    0.6501049263
C        2.8991580922   -1.7770341213    2.0443351744
C        1.8214338899   -1.2257538869    2.7626950568
C        0.7944338212   -0.5812689938    2.0399399430
C        0.8580568114   -0.4798261653    0.6450023576
H        0.0601673442    0.0153253848    0.0980783785
H       -0.0754946416   -0.1674587115    2.5406504992
C        1.7842938436   -1.3319329438    4.2312348889
O        2.4463763271   -2.1623277464    4.7902588936
O        1.0071194014   -0.4880788124    4.9361972834
H        0.5258321485    0.1307977126    4.3713620098
H        3.6984683541   -2.2865865536    2.5789349231
H        3.8049747723   -2.0954894391    0.1129514968
