15   

H        2.1271729050   -1.0610767794   -1.2209014227
C        1.9701894993   -1.0475300355   -0.1458266790
C        3.0517428422   -1.2090822532    0.7250385013
C        2.8496089340   -1.1921315220    2.1114825651
C        1.5750277870   -1.0076546219    2.6408534493
C        0.4892324914   -0.8565620079    1.7591072094
C        0.6850928450   -0.8725816304    0.3736033419
H       -0.1620507678   -0.7512121442   -0.2955391844
H       -0.5139330691   -0.7261672676    2.1592565776
C        1.3363210858   -1.0078906867    4.1002309048
O        0.2532050539   -1.1124340541    4.6203452440
O        2.4619728251   -0.8943742836    4.8444931283
H        2.1478038420   -0.9107190627    5.7603520695
H        3.7101016667   -1.3264415313    2.7620971614
H        4.0522054169   -1.3500599958    0.3259772594
15   

H        2.1246493163   -1.0335596629   -1.2187924508
C        1.9683907026   -1.0309834093   -0.1435314352
C        3.0460754619   -1.2339529693    0.7240822763
C        2.8439259868   -1.2315912278    2.1105048385
C        1.5758537613   -1.0141836917    2.6412106212
C        0.4920514516   -0.8312669441    1.7648207211
C        0.6874147959   -0.8324179307    0.3789799030
H       -0.1568489624   -0.6835771134   -0.2882392285
H       -0.5072636054   -0.6894664563    2.1703976940
C        1.3412581693   -1.0533494998    4.1018494937
O        0.3073782575   -1.3862224383    4.6242210238
O        2.4261726532   -0.7148924010    4.8376131571
H        2.1290742513   -0.7917144372    5.7560162484
H        3.6941600379   -1.4007048948    2.7666501412
H        4.0421697749   -1.3970811206    0.3225633812
15   

H        2.1177442860   -1.0080973846   -1.2164918073
C        1.9639250904   -1.0165772371   -0.1409094494
C        3.0381739565   -1.2615949293    0.7207678084
C        2.8382729610   -1.2736887314    2.1073345668
C        1.5785464729   -1.0245832249    2.6418253198
C        0.4961198715   -0.8062763214    1.7737748029
C        0.6889189071   -0.7926007643    0.3874308435
H       -0.1526111296   -0.6144358866   -0.2760272132
H       -0.4980996033   -0.6504505361    2.1861065740
C        1.3535898644   -1.0994205047    4.1052576715
O        0.4186272776   -1.6454773707    4.6319184925
O        2.3541298087   -0.5472787632    4.8298455849
H        2.0882340164   -0.6792850345    5.7514279848
H        3.6787892742   -1.4750753259    2.7669374919
H        4.0284915310   -1.4467007925    0.3145357784
15   

H        2.1067597706   -0.9837234292   -1.2155331453
C        1.9581509158   -1.0062202818   -0.1394206067
C        3.0296490388   -1.2973250538    0.7117953651
C        2.8360243652   -1.3272288295    2.0988935466
C        1.5870257975   -1.0499551465    2.6422064415
C        0.5058422367   -0.7862409131    1.7866929107
C        0.6923844430   -0.7543501659    0.3996207267
H       -0.1466323523   -0.5407483479   -0.2565016638
H       -0.4808911632   -0.6098374125    2.2079217741
C        1.3771931461   -1.1498765936    4.1105319093
O        0.5893773061   -1.8830917488    4.6473898020
O        2.2370499925   -0.3838013004    4.8190327514
H        2.0117720184   -0.5559603836    5.7446763936
H        3.6699142699   -1.5622550961    2.7556329680
H        4.0120827031   -1.5040850608    0.2969627658
15   

H        2.0896328315   -0.9507883102   -1.2157593195
C        1.9514576335   -0.9933107560   -0.1388608439
C        3.0217379234   -1.3390440080    0.6934664125
C        2.8415350846   -1.3943120820    2.0815637010
C        1.6068433651   -1.0943036303    2.6431602318
C        0.5275845112   -0.7671051913    1.8080138276
C        0.7008690785   -0.7096684752    0.4199566821
H       -0.1361612844   -0.4497420476   -0.2218154545
H       -0.4463794101   -0.5603650460    2.2442941050
C        1.4183744819   -1.2028470139    4.1181755102
O        0.8236908824   -2.0837035743    4.6786892923
O        2.0538692664   -0.2230748080    4.7977140225
H        1.8717984804   -0.4129186630    5.7292651640
H        3.6732244251   -1.6688442747    2.7254192439
H        3.9926309379   -1.5674534022    0.2631011884
15   

H        2.0780869269   -0.9098246505   -1.2148585956
C        1.9525835684   -0.9734705451   -0.1374504989
C        3.0178275951   -1.3854871359    0.6707002898
C        2.8537545594   -1.4680159714    2.0594546257
C        1.6377601395   -1.1415041076    2.6452017903
C        0.5679591837   -0.7298467900    1.8353318090
C        0.7247767496   -0.6452631037    0.4467129339
H       -0.1065117884   -0.3263707877   -0.1756232335
H       -0.3858864859   -0.4777535461    2.2914383542
C        1.4730089987   -1.2405544486    4.1258747246
O        1.1012532053   -2.2147593928    4.7218263265
O        1.7928648009   -0.0917305509    4.7602208190
H        1.6470281889   -0.2803552607    5.6983165999
H        3.6824125282   -1.7907055215    2.6845548008
H        3.9726394311   -1.6427916891    0.2210765846
15   

H        2.0619301645   -0.8790515680   -1.2142887632
C        1.9514688829   -0.9557154326   -0.1360822233
C        3.0114373406   -1.4250717260    0.6471003674
C        2.8664447572   -1.5247666222    2.0368281587
C        1.6710777304   -1.1693990617    2.6487218174
C        0.6126021138   -0.6836231383    1.8642049506
C        0.7500732311   -0.5820577296    0.4747108376
H       -0.0749031696   -0.2118214198   -0.1272497018
H       -0.3175975346   -0.3865724069    2.3416206137
C        1.5383119488   -1.2544280516    4.1318157707
O        1.4097146879   -2.2666544531    4.7662480239
O        1.5123112856   -0.0369481975    4.7172121371
H        1.4073458559   -0.2213729049    5.6616377000
H        3.6920748320   -1.8895817607    2.6426983514
H        3.9478269194   -1.7126190127    0.1774798142
15   

H        2.0487287741   -0.8846221239   -1.2172491228
C        1.9501735533   -0.9588604149   -0.1377207189
C        3.0022851737   -1.4686817019    0.6303329661
C        2.8726607065   -1.5653425127    2.0217252364
C        1.6979208442   -1.1710126480    2.6518016138
C        0.6503153995   -0.6382453890    1.8810802818
C        0.7728988434   -0.5398087804    0.4900040574
H       -0.0447269577   -0.1354389453   -0.0998989733
H       -0.2602932523   -0.3018326792    2.3702910207
C        1.5964290045   -1.2427548451    4.1339544843
O        1.7085418184   -2.2410864406    4.7950790157
O        1.2701553928   -0.0543648337    4.6902037021
H        1.2139945005   -0.2364703044    5.6393450440
H        3.6927050309   -1.9612295757    2.6159935765
H        3.9210362799   -1.7898445793    0.1478202322
15   

H        2.0333487258   -0.9131398322   -1.2227800498
C        1.9445726424   -0.9746810804   -0.1416054470
C        2.9880042324   -1.5117234804    0.6193109109
C        2.8713850995   -1.5919213787    2.0127836059
C        1.7174240984   -1.1528007744    2.6543384806
C        0.6776830944   -0.5944707539    1.8881686343
C        0.7885136832   -0.5127318533    0.4950169457
H       -0.0224183436   -0.0880475930   -0.0898374449
H       -0.2191286376   -0.2253015816    2.3794627770
C        1.6441545613   -1.2154775829    4.1344176728
O        1.9849076384   -2.1537229375    4.8074671940
O        1.0718852680   -0.1194443433    4.6837209125
H        1.0706378414   -0.2971979031    5.6354590459
H        3.6854929856   -2.0098002008    2.6006350831
H        3.8902881310   -1.8671376248    0.1297718809
15   

H        2.0177218694   -0.9530380170   -1.2296520434
C        1.9381293881   -0.9963328899   -0.1468787396
C        2.9725888910   -1.5530640705    0.6115626764
C        2.8683765349   -1.6096800419    2.0070876944
C        1.7361895746   -1.1234446828    2.6558132027
C        0.7023976572   -0.5507006986    1.8890973703
C        0.8022466760   -0.4928410717    0.4939287931
H       -0.0027069507   -0.0551371399   -0.0896010322
H       -0.1835716944   -0.1515359221    2.3766153496
C        1.6838699788   -1.1792633719    4.1339537702
O        2.2303402313   -2.0124054923    4.8120087637
O        0.9059796492   -0.2185032000    4.6851741242
H        0.9567684768   -0.3830868070    5.6380180824
H        3.6777040945   -2.0441230247    2.5899186407
H        3.8587785507   -1.9425880288    0.1185778253
15   

H        1.9967625129   -0.9985484716   -1.2355066346
C        1.9271956614   -1.0218991783   -0.1514282566
C        2.9532645996   -1.5945606485    0.6058808609
C        2.8626774277   -1.6251127168    2.0031200482
C        1.7537231703   -1.0925346466    2.6572694761
C        0.7245638613   -0.5100190112    1.8889143332
C        0.8119455596   -0.4783026343    0.4920857193
H        0.0122846132   -0.0302791878   -0.0909040251
H       -0.1498619714   -0.0810741224    2.3718315105
C        1.7167859944   -1.1395533839    4.1348693982
O        2.4373567390   -1.8226228019    4.8195694351
O        0.7649345864   -0.3497033400    4.6851521581
H        0.8587618991   -0.4876536906    5.6390201476
H        3.6683853421   -2.0734523423    2.5805920545
H        3.8229864305   -2.0170558924    0.1107122850
15   

H        1.9716837816   -1.0475018751   -1.2388639881
C        1.9132133394   -1.0499015073   -0.1538816118
C        2.9316319578   -1.6363231889    0.6029275440
C        2.8559176633   -1.6392787990    2.0013721641
C        1.7711758701   -1.0614683951    2.6583320889
C        0.7462428233   -0.4710201858    1.8892632740
C        0.8193502384   -0.4666599274    0.4912754828
H        0.0247346839   -0.0093774776   -0.0914311537
H       -0.1134980189   -0.0118416867    2.3706635584
C        1.7452535820   -1.0947464362    4.1362315885
O        2.6010901807   -1.5895811598    4.8276185173
O        0.6531705653   -0.5093032043    4.6816360764
H        0.7779856741   -0.6089903768    5.6367401822
H        3.6566943161   -2.0997823850    2.5761518043
H        3.7841533576   -2.0910886807    0.1064277959
15   

H        1.9428080848   -1.0963260451   -1.2386207259
C        1.8962407082   -1.0779960021   -0.1532147082
C        2.9074102215   -1.6776607040    0.6032335775
C        2.8472829559   -1.6530115717    2.0022310415
C        1.7877701653   -1.0308317694    2.6592356365
C        0.7669191193   -0.4332580741    1.8913605769
C        0.8243406136   -0.4558368218    0.4928025041
H        0.0346406097    0.0102398050   -0.0896115781
H       -0.0752439322    0.0541566261    2.3761404747
C        1.7680236527   -1.0466950957    4.1378279895
O        2.7114770644   -1.3258307833    4.8353945750
O        0.5776499985   -0.6891212634    4.6743415938
H        0.7186432008   -0.7415916104    5.6309323053
H        3.6406252029   -2.1237623228    2.5789886893
H        3.7419411217   -2.1639322822    0.1060330675
15   

H        1.9153638384   -1.1385423437   -1.2355604839
C        1.8803412367   -1.1010629346   -0.1502143886
C        2.8824905356   -1.7163503987    0.6063618108
C        2.8371716160   -1.6662333475    2.0052864486
C        1.8045831785   -0.9994947031    2.6597614547
C        0.7894767171   -0.3928867488    1.8941243049
C        0.8314065900   -0.4399943001    0.4956123502
H        0.0476207979    0.0360724890   -0.0866954505
H       -0.0337955204    0.1199046487    2.3852615574
C        1.7840533419   -0.9976994261    4.1397371598
O        2.7616547916   -1.0494982360    4.8426783265
O        0.5419978019   -0.8781515933    4.6641641848
H        0.6825696446   -0.8800209493    5.6221907696
H        3.6205534013   -2.1476982758    2.5866195827
H        3.6978778187   -2.2341902389    0.1092898132
15   

H        1.8897886925   -1.1733121687   -1.2310668335
C        1.8653336080   -1.1182846785   -0.1461792989
C        2.8555597904   -1.7517523574    0.6116653053
C        2.8236111673   -1.6785019759    2.0100256110
C        1.8194261163   -0.9679417384    2.6602269800
C        0.8133154146   -0.3486626124    1.8959987814
C        0.8408640532   -0.4178551694    0.4980396373
H        0.0649300410    0.0702569255   -0.0847940646
H        0.0095129083    0.1890678708    2.3926621989
C        1.7934632355   -0.9448832003    4.1430370010
O        2.7502839752   -0.7666230362    4.8516483970
O        0.5468197462   -1.0710258900    4.6534124491
H        0.6707897121   -1.0218470700    5.6123786903
H        3.5954060959   -2.1730655396    2.5954341710
H        3.6506071709   -2.3015120642    0.1159356991
15   

H        1.8737405845   -1.2017559808   -1.2273504401
C        1.8548449343   -1.1316262871   -0.1432236896
C        2.8264991993   -1.7872612662    0.6201856521
C        2.8015836751   -1.6941567534    2.0176222523
C        1.8244835839   -0.9416422295    2.6591073548
C        0.8359084752   -0.3018936753    1.8917934758
C        0.8555574898   -0.3900063136    0.4947753657
H        0.0933604839    0.1148177324   -0.0919280575
H        0.0524904782    0.2650281477    2.3883462590
C        1.7910699962   -0.8900048866    4.1451899715
O        2.6770102737   -0.4859195492    4.8509845332
O        0.5974204942   -1.2735697110    4.6513691814
H        0.6958386538   -1.1755290820    5.6094337086
H        3.5577827662   -2.2057512181    2.6082051498
H        3.6011901164   -2.3695060781    0.1293570813
15   

H        1.8759960231   -1.2160226719   -1.2250218287
C        1.8528337992   -1.1344735329   -0.1417759496
C        2.7940662620   -1.8190163307    0.6345526119
C        2.7635605273   -1.7112254378    2.0308891714
C        1.8088804705   -0.9196584023    2.6566764989
C        0.8546004141   -0.2450477533    1.8781742998
C        0.8795054191   -0.3474870713    0.4821823085
H        0.1425653560    0.1822984944   -0.1146963016
H        0.0943210794    0.3599514441    2.3653986285
C        1.7699864762   -0.8345619914    4.1451889787
O        2.5399579867   -0.2183024690    4.8314923067
O        0.7111749847   -1.4888553019    4.6709651970
H        0.7856403376   -1.3480949676    5.6257485738
H        3.4961612572   -2.2446386262    2.6313892450
H        3.5494047475   -2.4346844682    0.1544808816
15   

H        1.9106464051   -1.2132797586   -1.2245240905
C        1.8684753571   -1.1259018199   -0.1423056275
C        2.7633788573   -1.8466282524    0.6560121883
C        2.7082077333   -1.7317931572    2.0510529156
C        1.7676188039   -0.9061614372    2.6526979286
C        0.8706338845   -0.1813078370    1.8528038409
C        0.9201930354   -0.2911094693    0.4579934536
H        0.2238367073    0.2723219300   -0.1565536737
H        0.1363159557    0.4686377586    2.3215827370
C        1.7235761227   -0.7864501195    4.1403386036
O        2.3327034541    0.0170083868    4.7929140153
O        0.9060179887   -1.6989704552    4.7090251552
H        0.9623966141   -1.5211180164    5.6587942064
H        3.4062957171   -2.2911159054    2.6686158975
H        3.5024427599   -2.4949348108    0.1939343741
15   

H        1.9514591823   -1.2012031120   -1.2237353028
C        1.8846842763   -1.1143260640   -0.1427152463
C        2.7255923422   -1.8757527193    0.6763715253
C        2.6387882206   -1.7617532588    2.0698602660
C        1.7112776663   -0.9050374246    2.6491887030
C        0.8813229890   -0.1260226579    1.8284334479
C        0.9626014565   -0.2353296370    0.4350652413
H        0.3135507772    0.3652741515   -0.1958557962
H        0.1751431577    0.5660252982    2.2801715990
C        1.6627576143   -0.7599503163    4.1322825295
O        2.0749834754    0.1840236460    4.7509227253
O        1.1552998692   -1.8515599773    4.7458416407
H        1.1935523587   -1.6421099114    5.6901114158
H        3.2972795029   -2.3501737364    2.7037179946
H        3.4482918799   -2.5539654983    0.2316793552
15   

H        1.9884315538   -1.1981714102   -1.2223634876
C        1.8991826120   -1.1130897165   -0.1428244050
C        2.6940527393   -1.9055300748    0.6924232472
C        2.5786730363   -1.7936296870    2.0840381168
C        1.6632396550   -0.9118325715    2.6466059170
C        0.8864716143   -0.0964231158    1.8086648350
C        0.9963920204   -0.2033948681    0.4171696586
H        0.3858275038    0.4242332378   -0.2257653602
H        0.1995284081    0.6232931291    2.2471991053
C        1.5962129775   -0.7529458054    4.1231748595
O        1.7812220763    0.2768979128    4.7161909590
O        1.3883318093   -1.9219415498    4.7700388152
H        1.3887407663   -1.6850867158    5.7087105806
H        3.2045960438   -2.4055562552    2.7287726773
H        3.4041907577   -2.6057740820    0.2618724178
15   

H        2.0149223932   -1.1944429801   -1.2224270457
C        1.9110586549   -1.1123881384   -0.1439610110
C        2.6681559278   -1.9321828374    0.6994086551
C        2.5343863698   -1.8244260447    2.0897928548
C        1.6372779206   -0.9181442789    2.6452156359
C        0.8985685047   -0.0769152858    1.7970063098
C        1.0272056137   -0.1795209937    0.4069586003
H        0.4454536361    0.4694422628   -0.2415037694
H        0.2252655794    0.6605107494    2.2278630578
C        1.5411089085   -0.7595789055    4.1160822823
O        1.4896697931    0.2955813614    4.6937461185
O        1.5887028431   -1.9344699271    4.7856599526
H        1.5336066119   -1.6844426986    5.7194110641
H        3.1353312299   -2.4599903328    2.7355664720
H        3.3639640133   -2.6510310875    0.2761760470
15   

H        2.0401916699   -1.1866224563   -1.2236676612
C        1.9256890678   -1.1083717100   -0.1459962751
C        2.6489153782   -1.9537302382    0.7011562009
C        2.5017305012   -1.8517560583    2.0907516065
C        1.6270662862   -0.9213713044    2.6441669162
C        0.9177635032   -0.0597449045    1.7893951883
C        1.0602884235   -0.1566550865    0.4005042604
H        0.5019674866    0.5104030512   -0.2502087506
H        0.2537796486    0.6897796676    2.2143292977
C        1.4956755607   -0.7734985858    4.1107632085
O        1.2113619973    0.2520745689    4.6764041840
O        1.7686229068   -1.9065776071    4.7996554422
H        1.6503149187   -1.6593763579    5.7283793470
H        3.0806723654   -2.5125355609    2.7312364231
H        3.3291003688   -2.6893839061    0.2814013267
15   

H        2.0648554851   -1.1740140245   -1.2244986044
C        1.9406974507   -1.1009778767   -0.1475290064
C        2.6308890577   -1.9717994346    0.7007447078
C        2.4713793375   -1.8776009104    2.0896492677
C        1.6211153547   -0.9241296484    2.6435138879
C        0.9377952555   -0.0436266304    1.7850007152
C        1.0931452293   -0.1330632029    0.3971583757
H        0.5565618038    0.5511380423   -0.2540569925
H        0.2815446375    0.7154856136    2.2051758881
C        1.4546566499   -0.7934309211    4.1070616868
O        0.9511186087    0.1524007142    4.6606327138
O        1.9392612989   -1.8416911217    4.8143190522
H        1.7607903569   -1.6121094527    5.7380112542
H        3.0265232217   -2.5652981844    2.7226374206
H        3.2946143017   -2.7230496799    0.2822452044
15   

H        2.0869135340   -1.1573567518   -1.2238971883
C        1.9531979373   -1.0915837075   -0.1476030372
C        2.6109763341   -1.9883130947    0.6991181732
C        2.4389648236   -1.9040534453    2.0872114912
C        1.6135344168   -0.9298471498    2.6431869150
C        0.9544078015   -0.0303193276    1.7846256518
C        1.1225172759   -0.1098426162    0.3977283091
H        0.6071072545    0.5915444640   -0.2523109856
H        0.3061437312    0.7364525765    2.2033544702
C        1.4158270656   -0.8205743991    4.1043664813
O        0.7150869652    0.0001981621    4.6434598662
O        2.0995468003   -1.7382239720    4.8286323124
H        1.8698877875   -1.5386221379    5.7479960400
H        2.9660070280   -2.6178585494    2.7151962427
H        3.2580459494   -2.7535749630    0.2799109876
