15   

H        1.8845504127   -1.1969428287   -1.1372784169
C        1.8989898543   -1.1487039798   -0.0516632570
C        2.9606942836   -1.7129156165    0.6605966115
C        2.9827614518   -1.6485463367    2.0588610204
C        1.9377440128   -1.0271728785    2.7676298680
C        0.8788116997   -0.4511548011    2.0341132005
C        0.8609936220   -0.5146553345    0.6358222781
H        0.0426242066   -0.0637818965    0.0809007010
H        0.0688828102    0.0726118222    2.5337518887
C        1.9680883683   -0.9741836753    4.2380957310
O        2.9986688411   -1.1458666493    4.8281181973
O        0.8176975165   -0.7689074310    4.9117198680
H        0.0392111191   -0.8750488027    4.3499162352
H        3.8161069849   -2.0883349357    2.6032831092
H        3.7727972690   -2.2011724089    0.1291528370
15   

H        1.8838575594   -1.2620477006   -1.1393029837
C        1.8976849708   -1.2010759659   -0.0543361097
C        2.9498305740   -1.7725906945    0.6665707626
C        2.9717723699   -1.6906359398    2.0641066599
C        1.9363535636   -1.0425348788    2.7629711028
C        0.8871237826   -0.4605204154    2.0206801343
C        0.8687457667   -0.5425070677    0.6235513488
H        0.0577801165   -0.0857917845    0.0625792040
H        0.0864422180    0.0827227580    2.5151241240
C        1.9669687079   -0.9570535557    4.2318023284
O        2.9799005709   -1.1865343014    4.8318113293
O        0.8201727735   -0.6788308861    4.8963827097
H        0.0378198781   -0.9607343381    4.4072733019
H        3.7988992935   -2.1341967975    2.6148243838
H        3.7553464116   -2.2788895636    0.1420858823
15   

H        1.8962136216   -1.3110823581   -1.1454713869
C        1.9060715982   -1.2407518273   -0.0610535261
C        2.9502957094   -1.8145571830    0.6697486714
C        2.9674283962   -1.7197138381    2.0667230364
C        1.9353380603   -1.0548150873    2.7547447259
C        0.8937840376   -0.4722953393    2.0023864611
C        0.8797245758   -0.5676500272    0.6062416148
H        0.0743153106   -0.1095802479    0.0384478093
H        0.0956979767    0.0808677161    2.4904774860
C        1.9609905227   -0.9456727612    4.2222483695
O        2.9519553600   -1.2277853219    4.8353878664
O        0.8187513595   -0.5924102168    4.8733903761
H        0.0425735843   -1.0278828458    4.5047395272
H        3.7893206812   -2.1638249034    2.6246626188
H        3.7538641881   -2.3318118840    0.1531035976
15   

H        1.9225825202   -1.3320181747   -1.1567541653
C        1.9249407384   -1.2589450101   -0.0725086181
C        2.9612627638   -1.8351691600    0.6677657942
C        2.9685563600   -1.7365642789    2.0647266715
C        1.9348661260   -1.0640504645    2.7429804086
C        0.9008633478   -0.4808168290    1.9810175429
C        0.8962143835   -0.5802840431    0.5852458131
H        0.0958838789   -0.1213306853    0.0110794634
H        0.1002073149    0.0740128263    2.4632557127
C        1.9493342915   -0.9460609383    4.2102323805
O        2.9158055587   -1.2749738308    4.8379288803
O        0.8161862423   -0.5120029357    4.8460307092
H        0.0570692655   -1.0667189309    4.6424410287
H        3.7847166858   -2.1821513101    2.6297095414
H        3.7664440983   -2.3569454319    0.1583193540
15   

H        1.9623590233   -1.3202248881   -1.1735337459
C        1.9534610251   -1.2517160476   -0.0890633834
C        2.9811054609   -1.8322583730    0.6599906601
C        2.9731974425   -1.7400857272    2.0575023932
C        1.9333810363   -1.0684794774    2.7273796053
C        0.9078094902   -0.4822337079    1.9565328375
C        0.9179680994   -0.5755724615    0.5604673445
H        0.1229742323   -0.1147718639   -0.0195224112
H        0.1001779281    0.0668874019    2.4337810077
C        1.9291469593   -0.9584922434    4.1957048625
O        2.8728577852   -1.3252648400    4.8365564315
O        0.8133844471   -0.4410311361    4.8144917730
H        0.0849205742   -1.0676986832    4.8165559905
H        3.7823955051   -2.1896152411    2.6291745387
H        3.7910475340   -2.3527621067    0.1569251091
15   

H        2.0135780132   -1.2842099924   -1.1913346908
C        1.9897552433   -1.2268379212   -0.1064815068
C        3.0069955577   -1.8148007697    0.6509811662
C        2.9788252172   -1.7381262259    2.0492587920
C        1.9295943042   -1.0734407161    2.7115496200
C        0.9143350940   -0.4806531096    1.9320852476
C        0.9443224604   -0.5589255333    0.5354444215
H        0.1558154645   -0.0942174083   -0.0501720277
H        0.0967633001    0.0578889832    2.4044913313
C        1.8997871122   -0.9847514010    4.1816005266
O        2.8238530391   -1.3846174627    4.8327035659
O        0.8135777641   -0.3840208727    4.7813433930
H        0.1343895329   -1.0226726858    5.0130015120
H        3.7793507725   -2.1947319424    2.6273221403
H        3.8240420644   -2.3298577563    0.1539318649
15   

H        2.0656466326   -1.2478162874   -1.2061178897
C        2.0254510712   -1.2028348300   -0.1211972800
C        3.0322738595   -1.7973495590    0.6450308032
C        2.9820828815   -1.7377646106    2.0436073207
C        1.9215829578   -1.0825430792    2.6976598217
C        0.9166566189   -0.4839709705    1.9090679921
C        0.9682889973   -0.5455917449    0.5122917554
H        0.1863764443   -0.0775476491   -0.0794102187
H        0.0879576052    0.0426254095    2.3755855864
C        1.8644648008   -1.0160943889    4.1688027370
O        2.7728100942   -1.4446641856    4.8270544181
O        0.8118864082   -0.3497796604    4.7476219735
H        0.2118289264   -0.9483311713    5.2015783603
H        3.7740356672   -2.2007826653    2.6281720537
H        3.8578335182   -2.3050509902    0.1546201854
15   

H        2.1064431245   -1.2277836161   -1.2160938339
C        2.0513952220   -1.1922744469   -0.1314993522
C        3.0492074370   -1.7906797911    0.6434541505
C        2.9792482000   -1.7440916269    2.0417482162
C        1.9083706985   -1.0967996554    2.6869972836
C        0.9123012022   -0.4951397638    1.8893397130
C        0.9832786897   -0.5443382839    0.4929814446
H        0.2071126852   -0.0747693179   -0.1049986017
H        0.0737533760    0.0216052111    2.3493405431
C        1.8283881370   -1.0446122746    4.1582436765
O        2.7179718929   -1.5063816611    4.8231421996
O        0.8069430448   -0.3321011349    4.7179690519
H        0.3143682362   -0.8555188143    5.3592646619
H        3.7640090439   -2.2109507755    2.6327778383
H        3.8828270463   -2.2918212601    0.1600565849
15   

H        2.1402171311   -1.2149185656   -1.2221844477
C        2.0728492695   -1.1849118295   -0.1381351240
C        3.0675984375   -1.7773533343    0.6453726892
C        2.9815060719   -1.7380212007    2.0430608204
C        1.8972877364   -1.1039809123    2.6790793764
C        0.9039581119   -0.5092356980    1.8727610170
C        0.9912437349   -0.5507649608    0.4771381218
H        0.2166863684   -0.0866340194   -0.1271198270
H        0.0540727675   -0.0051806885    2.3261739908
C        1.7990648920   -1.0595077510    4.1496555281
O        2.6824298442   -1.5240885205    4.8235997111
O        0.7732368745   -0.3583201056    4.6950982431
H        0.4261107457   -0.8002211738    5.4800723659
H        3.7636248118   -2.2006912673    2.6407435192
H        3.9111015485   -2.2685761971    0.1690470528
15   

H        2.1602149125   -1.2026492271   -1.2262249058
C        2.0836572869   -1.1781759196   -0.1426555263
C        3.0758580956   -1.7675311829    0.6464472509
C        2.9776949482   -1.7355527078    2.0435566665
C        1.8839172724   -1.1118383897    2.6732783706
C        0.8928553235   -0.5209156966    1.8614179789
C        0.9922310380   -0.5549491361    0.4664183648
H        0.2190217161   -0.0940478924   -0.1420069721
H        0.0348179658   -0.0268458923    2.3105963891
C        1.7732870249   -1.0739648113    4.1431193128
O        2.6438235577   -1.5544947917    4.8245015410
O        0.7398915337   -0.3917709077    4.6809002893
H        0.5372040601   -0.7272520831    5.5655056809
H        3.7575445597   -2.1962096165    2.6456786949
H        3.9265160789   -2.2509409429    0.1749009132
15   

H        2.1791630776   -1.1887961246   -1.2286758882
C        2.0953858648   -1.1690422185   -0.1455495924
C        3.0881205052   -1.7517007147    0.6479196945
C        2.9804282259   -1.7260406066    2.0444825296
C        1.8763466242   -1.1156710533    2.6690369358
C        0.8844929669   -0.5320619405    1.8529606884
C        0.9936017719   -0.5593262079    0.4585648076
H        0.2194864923   -0.1043281689   -0.1531377009
H        0.0178626616   -0.0499575712    2.2987514939
C        1.7556122556   -1.0841983111    4.1380086188
O        2.6168413565   -1.5725990153    4.8267423208
O        0.6983528723   -0.4453050078    4.6712337923
H        0.6316876847   -0.6531752277    5.6154516743
H        3.7601814331   -2.1820480390    2.6502237942
H        3.9462746761   -2.2254184314    0.1801507711
15   

H        2.1947096344   -1.1718836020   -1.2287384955
C        2.1059434265   -1.1574054904   -0.1459279893
C        3.1015685067   -1.7322139185    0.6496835686
C        2.9872631656   -1.7136295255    2.0458507298
C        1.8733529190   -1.1187092194    2.6677265062
C        0.8783352837   -0.5435166690    1.8495569087
C        0.9943547069   -0.5631267505    0.4556078537
H        0.2175713013   -0.1149026116   -0.1577147788
H        0.0034070064   -0.0748171784    2.2934742045
C        1.7453914501   -1.0948628721    4.1361247707
O        2.6008503096   -1.5892390423    4.8282279659
O        0.6573532767   -0.5109993448    4.6661296362
H        0.6999540803   -0.5653297355    5.6333404788
H        3.7687564597   -2.1642672479    2.6533533362
H        3.9667855441   -2.1948488665    0.1838448297
15   

H        2.2007632809   -1.1496479610   -1.2274292051
C        2.1101982690   -1.1421949570   -0.1446947767
C        3.1110376838   -1.7101654745    0.6492425081
C        2.9942790164   -1.7009355672    2.0452819121
C        1.8724214389   -1.1227801916    2.6688100979
C        0.8718575864   -0.5549561508    1.8522308410
C        0.9906679198   -0.5646393300    0.4583950144
H        0.2094912149   -0.1224384380   -0.1537152444
H       -0.0100703484   -0.1005744839    2.2971382370
C        1.7418442730   -1.1091455964    4.1372136933
O        2.5956126918   -1.6110677238    4.8255151724
O        0.6233657383   -0.5811850372    4.6669061589
H        0.7381070498   -0.4603452269    5.6215966941
H        3.7794769510   -2.1470758224    2.6513375180
H        3.9819461560   -2.1607693929    0.1822099943
15   

H        2.2023027415   -1.1263744214   -1.2237942954
C        2.1115895855   -1.1275541907   -0.1410420835
C        3.1179341709   -1.6912764554    0.6488775556
C        3.0009059320   -1.6934858507    2.0448979213
C        1.8731154460   -1.1314117884    2.6726558196
C        0.8666664007   -0.5683753005    1.8599067680
C        0.9860212150   -0.5662020652    0.4660604815
H        0.2002410794   -0.1280830774   -0.1430908406
H       -0.0208905046   -0.1278027581    2.3073806958
C        1.7424952170   -1.1297652323    4.1413428617
O        2.5948125588   -1.6433128635    4.8216728059
O        0.5999815756   -0.6453155250    4.6728259354
H        0.7516274357   -0.3386777537    5.5778857632
H        3.7901919258   -2.1370410033    2.6475649773
H        3.9931450122   -2.1301898690    0.1787488972
15   

H        2.2019020011   -1.1031433078   -1.2186238416
C        2.1113979505   -1.1150612135   -0.1359102363
C        3.1218509321   -1.6790406777    0.6485063197
C        3.0050261817   -1.6953981648    2.0444201724
C        1.8734443392   -1.1471898410    2.6777021669
C        0.8624158741   -0.5845220999    1.8703599303
C        0.9816774692   -0.5681082647    0.4765830714
H        0.1923436629   -0.1307580780   -0.1285295500
H       -0.0293416146   -0.1563478976    2.3213537414
C        1.7438414781   -1.1595802722    4.1464666813
O        2.5896860048   -1.6921495693    4.8182448066
O        0.5891282398   -0.6919400859    4.6844710685
H        0.7563898927   -0.2017431636    5.4991409894
H        3.7973356131   -2.1395977389    2.6426930307
H        3.9999730960   -2.1075268733    0.1741809497
15   

H        2.1945888668   -1.0680403852   -1.2110054557
C        2.1059944231   -1.0933251315   -0.1283475821
C        3.1233625852   -1.6562885363    0.6477357481
C        3.0089989936   -1.6901711423    2.0434663721
C        1.8730779385   -1.1607549125    2.6849596858
C        0.8544998854   -0.5998878666    1.8860018688
C        0.9715605418   -0.5655732890    0.4923038941
H        0.1765957846   -0.1300737899   -0.1067620766
H       -0.0421177591   -0.1883806601    2.3426497449
C        1.7466703787   -1.1927006338    4.1535260743
O        2.5937320746   -1.7315294789    4.8159687824
O        0.5843146081   -0.7355471359    4.7051185344
H        0.7467312763   -0.0720023406    5.3842247046
H        3.8064456466   -2.1340391429    2.6352290711
H        4.0047908063   -2.0707883278    0.1670988250
15   

H        2.1894950343   -1.0233846121   -1.1989664276
C        2.1008098905   -1.0662771050   -0.1168449311
C        3.1199381840   -1.6384879827    0.6500955472
C        3.0051291239   -1.6960055059    2.0449419606
C        1.8677990262   -1.1800209212    2.6945571942
C        0.8468549117   -0.6104805210    1.9050387308
C        0.9641054321   -0.5531863607    0.5120503916
H        0.1671899050   -0.1123341088   -0.0805191743
H       -0.0530152040   -0.2128658357    2.3674463740
C        1.7415377547   -1.2388741136    4.1617086621
O        2.5707483659   -1.8108536126    4.8153960276
O        0.6010843426   -0.7318112742    4.7354542568
H        0.7746778590    0.0717176422    5.2340679807
H        3.8033450665   -2.1476705464    2.6298700278
H        4.0028041509   -2.0423348979    0.1629945134
15   

H        2.1920719026   -0.9607164138   -1.1810338624
C        2.1016509374   -1.0240402963   -0.1000252454
C        3.1210330273   -1.6081223010    0.6575605501
C        3.0035354722   -1.6933354630    2.0506814317
C        1.8639989783   -1.1923101095    2.7077595385
C        0.8421880678   -0.6113953569    1.9279176540
C        0.9619613885   -0.5269487566    0.5364599426
H        0.1641849555   -0.0790391076   -0.0496912606
H       -0.0619994472   -0.2298266397    2.3953243836
C        1.7335388424   -1.2860344471    4.1719997394
O        2.5470548902   -1.8862473052    4.8167177345
O        0.6300298214   -0.7166576198    4.7707461311
H        0.8013009899    0.1859379278    5.0515046476
H        3.8010781855   -2.1553473595    2.6285722651
H        4.0057511876   -2.0005384203    0.1644174955
15   

H        2.1947130498   -0.8991318088   -1.1601231996
C        2.1028532827   -0.9809751676   -0.0804417466
C        3.1217468401   -1.5773766554    0.6681072372
C        3.0019829162   -1.6879213006    2.0591621685
C        1.8614105853   -1.1989159323    2.7232232514
C        0.8393884423   -0.6062376356    1.9525812181
C        0.9613002710   -0.4970451794    0.5629666460
H        0.1632094666   -0.0418572561   -0.0172019310
H       -0.0685720227   -0.2389431994    2.4240375585
C        1.7266404034   -1.3255009760    4.1840133022
O        2.5229630600   -1.9593881536    4.8163580767
O        0.6772146513   -0.6878127990    4.8066287795
H        0.8182109921    0.2612737249    4.8588856084
H        3.7983486631   -2.1607069573    2.6300935609
H        4.0074436883   -1.9605894297    0.1694146448
15   

H        2.1830111405   -0.8600669535   -1.1417206056
C        2.0933066020   -0.9538389022   -0.0627889186
C        3.1134250205   -1.5594264301    0.6765525257
C        2.9963524735   -1.6862098325    2.0663352081
C        1.8580493076   -1.2032881111    2.7385488561
C        0.8338262375   -0.6023332674    1.9771474827
C        0.9530081454   -0.4773822738    0.5885233643
H        0.1534685156   -0.0169977975    0.0144008927
H       -0.0753775131   -0.2442253842    2.4531166088
C        1.7265273604   -1.3498802070    4.1973750642
O        2.5033872645   -2.0224477502    4.8141403649
O        0.7378355067   -0.6540096401    4.8415042669
H        0.8071218129    0.2927487769    4.6857321843
H        3.7932881067   -2.1666368150    2.6302098543
H        3.9978341829   -1.9376169697    0.1716807780
15   

H        2.1509381132   -0.8494502669   -1.1307655139
C        2.0675451845   -0.9481169807   -0.0517306848
C        3.0900780248   -1.5612324056    0.6778202002
C        2.9814288883   -1.6943416512    2.0675336553
C        1.8501612622   -1.2091810975    2.7498293796
C        0.8222669211   -0.6019069683    1.9982587615
C        0.9329657760   -0.4711639576    0.6093157593
H        0.1313003656   -0.0063100033    0.0417374025
H       -0.0843084813   -0.2453585039    2.4800862999
C        1.7320711998   -1.3605416134    4.2090352845
O        2.4827789562   -2.0780719343    4.8083070248
O        0.8064597221   -0.6146808271    4.8726823357
H        0.7703691066    0.2911116053    4.5467541279
H        3.7803545034   -2.1800744675    2.6241480924
H        3.9699927987   -1.9401253338    0.1655829514
15   

H        2.1027271233   -0.8653921848   -1.1266681761
C        2.0293485156   -0.9624626994   -0.0467354191
C        3.0544374108   -1.5830115235    0.6726101784
C        2.9592340777   -1.7133573055    2.0633836642
C        1.8400987790   -1.2169748203    2.7574148026
C        0.8082656482   -0.6034332195    2.0161274847
C        0.9053864298   -0.4761029696    0.6256660601
H        0.1017181129   -0.0061633279    0.0651146805
H       -0.0914796289   -0.2397226966    2.5048524313
C        1.7446223341   -1.3600076061    4.2189671693
O        2.4629092781   -2.1234719283    4.8019672369
O        0.8796570551   -0.5710231832    4.8998162704
H        0.7137027303    0.2641688277    4.4462888539
H        3.7606815337   -2.2034564547    2.6126194903
H        3.9263406436   -1.9689971411    0.1519581283
15   

H        2.0480121322   -0.9007166358   -1.1278406796
C        1.9857051909   -0.9915617086   -0.0466557810
C        3.0099525413   -1.6236544554    0.6634437808
C        2.9296608044   -1.7447855539    2.0557994529
C        1.8277308528   -1.2265522263    2.7612809591
C        0.7955545804   -0.6020466315    2.0293068898
C        0.8773797252   -0.4849683750    0.6367679902
H        0.0745372336   -0.0059572805    0.0827412464
H       -0.0928005513   -0.2204101836    2.5244168682
C        1.7595309640   -1.3521489483    4.2260582469
O        2.4386431647   -2.1607922615    4.7957947108
O        0.9540667574   -0.5217591351    4.9195930511
H        0.6435555903    0.2202057428    4.3848023805
H        3.7314061030   -2.2418412748    2.5983990065
H        3.8703063944   -2.0244679515    0.1347867808
15   

H        1.9918048297   -0.9392894378   -1.1330642762
C        1.9428150832   -1.0198650599   -0.0503758716
C        2.9616923976   -1.6703988770    0.6501091057
C        2.8991584236   -1.7770378223    2.0443390678
C        1.8214333425   -1.2257551867    2.7626955973
C        0.7944373184   -0.5812670392    2.0399376528
C        0.8580653070   -0.4798229138    0.6450004439
H        0.0601788338    0.0153310569    0.0980742779
H       -0.0754920757   -0.1674556626    2.5406457860
C        1.7842871622   -1.3319355372    4.2312349782
O        2.4463606446   -2.1623385220    4.7902618717
O        1.0071228433   -0.4880721497    4.9361936299
H        0.5258446077    0.1308077647    4.3713537733
H        3.6984652382   -2.2865931036    2.5789412553
H        3.8049808367   -2.0954934255    0.1129580436
