15   

H        2.1271733023   -1.0610783839   -1.2209000812
C        1.9701878654   -1.0475325146   -0.1458256219
C        3.0517399919   -1.2090828700    0.7250415337
C        2.8496035073   -1.1921327329    2.1114852719
C        1.5750217493   -1.0076583079    2.6408529889
C        0.4892272712   -0.8565679110    1.7591057186
C        0.6850898646   -0.8725868050    0.3736021515
H       -0.1620527909   -0.7512185439   -0.2955418022
H       -0.5139387983   -0.7261749119    2.1592543332
C        1.3363139185   -1.0078945632    4.1002347776
O        0.2532049108   -1.1124393342    4.6203504509
O        2.4619658418   -0.8943611941    4.8444940219
H        2.1478058113   -0.9107820038    5.7603546387
H        3.7100953617   -1.3264405874    2.7621014333
H        4.0522036135   -1.3500582879    0.3259820902
15   

H        2.1246463902   -1.0335725200   -1.2187905959
C        1.9683859146   -1.0309964896   -0.1435298495
C        3.0460701196   -1.2339616233    0.7240858026
C        2.8439185366   -1.2315988433    2.1105081007
C        1.5758451323   -1.0141948099    2.6412102956
C        0.4920429301   -0.8312830414    1.7648197350
C        0.6874083448   -0.8324348157    0.3789791944
H       -0.1568547217   -0.6835966571   -0.2882414008
H       -0.5072725541   -0.6894842133    2.1703962037
C        1.3412519635   -1.0533571554    4.1018528964
O        0.3073808204   -1.3862309155    4.6242305881
O        2.4261611822   -0.7148684211    4.8376095468
H        2.1291249707   -0.7918801497    5.7560168628
H        3.6941524164   -1.4007070792    2.7666549085
H        4.0421657057   -1.3970860155    0.3225685384
15   

H        2.1177412702   -1.0081134562   -1.2164901665
C        1.9639206139   -1.0165932435   -0.1409080143
C        3.0381693253   -1.2616062065    0.7207710138
C        2.8382667866   -1.2736982318    2.1073376471
C        1.5785392440   -1.0245961847    2.6418248852
C        0.4961123721   -0.8062941127    1.7737740139
C        0.6889129144   -0.7926200053    0.3874302670
H       -0.1526167013   -0.6144574792   -0.2760289515
H       -0.4981072446   -0.6504687824    2.1861056706
C        1.3535862452   -1.0994281784    4.1052591957
O        0.4186322885   -1.6454844608    4.6319319426
O        2.3541124338   -0.5472486128    4.8298367759
H        2.0883877395   -0.6795568699    5.7514252784
H        3.6787837584   -1.4750785138    2.7669413927
H        4.0284881144   -1.4467082901    0.3145402205
15   

H        2.1067565305   -0.9837337114   -1.2155325860
C        1.9581474805   -1.0062311621   -0.1394200838
C        3.0296459213   -1.2973338651    0.7117963135
C        2.8360211088   -1.3272371152    2.0988945858
C        1.5870224546   -1.0499659896    2.6422061447
C        0.5058384939   -0.7862529520    1.7866930807
C        0.6923805721   -0.7543624734    0.3996209207
H       -0.1466363523   -0.5407607494   -0.2565013367
H       -0.4808942922   -0.6098482941    2.2079230678
C        1.3771912808   -1.1498826846    4.1105338262
O        0.5893811345   -1.8830960933    4.6473983084
O        2.2370235469   -0.3837746985    4.8190283441
H        2.0120287454   -0.5562553543    5.7446810620
H        3.6699123279   -1.5622599161    2.7556331777
H        4.0120800456   -1.5040915303    0.2969636319
15   

H        2.0896320221   -0.9507912043   -1.2157588070
C        1.9514563371   -0.9933157344   -0.1388604753
C        3.0217363078   -1.3390500072    0.6934668681
C        2.8415329041   -1.3943200049    2.0815640886
C        1.6068408550   -1.0943136274    2.6431597313
C        0.5275825507   -0.7671129005    1.8080138133
C        0.7008675519   -0.7096741009    0.4199568619
H       -0.1361624442   -0.4497456375   -0.2218149306
H       -0.4463806429   -0.5603713054    2.2442952068
C        1.4183718898   -1.2028539988    4.1181781231
O        0.8236936331   -2.0837055336    4.6786978889
O        2.0538400270   -0.2230595843    4.7977090548
H        1.8720362612   -0.4130823680    5.7292758754
H        3.6732227577   -1.6688522680    2.7254186453
H        3.9926295518   -1.5674580892    0.2631014679
15   

H        2.0780870362   -0.9098241369   -1.2148585425
C        1.9525836544   -0.9734701529   -0.1374504543
C        3.0178276213   -1.3854869780    0.6707002999
C        2.8537545594   -1.4680159714    2.0594546257
C        1.6377601395   -1.1415041076    2.6452017903
C        0.5679592735   -0.7298464683    1.8353318585
C        0.7247768728   -0.6452626060    0.4467129996
H       -0.1065116060   -0.3263700568   -0.1756231281
H       -0.3858863398   -0.4777530959    2.2914384588
C        1.4730089987   -1.2405544486    4.1258747246
O        1.1012532053   -2.2147593928    4.7218263265
O        1.7928624735   -0.0917297911    4.7602206114
H        1.6470294750   -0.2803556966    5.6983167123
H        3.6824124898   -1.7907056970    2.6845547581
H        3.9726394330   -1.6427915845    0.2210765729
15   

H        2.0619300436   -0.8790558766   -1.2142894072
C        1.9514685973   -0.9557187597   -0.1360828147
C        3.0114373824   -1.4250732142    0.6471003198
C        2.8664447572   -1.5247666222    2.0368281587
C        1.6710777304   -1.1693990617    2.6487218174
C        0.6126014560   -0.6836255301    1.8642040915
C        0.7500725876   -0.5820616109    0.4747098263
H       -0.0749039896   -0.2118268989   -0.1272514537
H       -0.3175991034   -0.3865754183    2.3416180186
C        1.5383119488   -1.2544280516    4.1318157707
O        1.4097146879   -2.2666544531    4.7662480239
O        1.5123365290   -0.0369494674    4.7172154439
H        1.4070667108   -0.2213665810    5.6616086418
H        3.6920750601   -1.8895795619    2.6426995042
H        3.9478274598   -1.7126199630    0.1774804327
15   

H        2.0487294644   -0.8846239181   -1.2172494733
C        1.9501738825   -0.9588618181   -0.1377210742
C        3.0022853902   -1.4686825883    0.6303329816
C        2.8726607065   -1.5653425127    2.0217252364
C        1.6979208442   -1.1710126480    2.6518016138
C        0.6503157206   -0.6382451995    1.8810797885
C        0.7728993097   -0.5398095047    0.4900034547
H       -0.0447259413   -0.1354394376   -0.0999001794
H       -0.2602929659   -0.3018309230    2.3702888773
C        1.5964290045   -1.2427548451    4.1339544843
O        1.7085418184   -2.2410864406    4.7950790157
O        1.2701859811   -0.0543588870    4.6902079713
H        1.2136215271   -0.2365584369    5.6393073681
H        3.6927051830   -1.9612278485    2.6159946508
H        3.9210369240   -1.7898451947    0.1478208825
15   

H        2.0333495639   -0.9131391576   -1.2227799918
C        1.9445731672   -0.9746805912   -0.1416054269
C        2.9880043689   -1.5117236363    0.6193109479
C        2.8713850995   -1.5919213787    2.0127836059
C        1.7174240984   -1.1528007744    2.6543384806
C        0.6776841774   -0.5944686101    1.8881687587
C        0.7885148231   -0.5127299080    0.4950170260
H       -0.0224162023   -0.0880439830   -0.0898375417
H       -0.2191264205   -0.2252964970    2.3794623651
C        1.6441545613   -1.2154775829    4.1344176728
O        1.9849076384   -2.1537229375    4.8074671940
O        1.0719095593   -0.1194335715    4.6837238863
H        1.0703311033   -0.2973473456    5.6354316658
H        3.6854930368   -2.0097993874    2.6006356723
H        3.8902883987   -1.8671378118    0.1297721840
15   

H        2.0177221629   -0.9530371256   -1.2296518890
C        1.9381295800   -0.9963322195   -0.1468786030
C        2.9725888180   -1.5530640764    0.6115626836
C        2.8683765349   -1.6096800419    2.0070876944
C        1.7361895746   -1.1234446828    2.6558132027
C        0.7023986114   -0.5506987043    1.8890977032
C        0.8022475108   -0.4928391249    0.4939291004
H       -0.0027053057   -0.0551336487   -0.0896006782
H       -0.1835694024   -0.1515313944    2.3766158562
C        1.6838699788   -1.1792633719    4.1339537702
O        2.2303402313   -2.0124054923    4.8120087637
O        0.9059954091   -0.2184915583    4.6851756536
H        0.9565861836   -0.3832278512    5.6380038023
H        3.6777041733   -2.0441226394    2.5899188535
H        3.8587784439   -1.9425881239    0.1185778431
15   

H        1.9967626562   -0.9985479629   -1.2355065554
C        1.9271957512   -1.0218988140   -0.1514281838
C        2.9532645608   -1.5945606118    0.6058808662
C        2.8626774277   -1.6251127168    2.0031200482
C        1.7537231703   -1.0925346466    2.6572694761
C        0.7245643372   -0.5100180530    1.8889144953
C        0.8119459650   -0.4783016891    0.4920858710
H        0.0122854130   -0.0302774853   -0.0909038307
H       -0.1498607621   -0.0810719331    2.3718318617
C        1.7167859944   -1.1395533839    4.1348693982
O        2.4373567390   -1.8226228019    4.8195694351
O        0.7649419488   -0.3496949250    4.6851527032
H        0.8586927115   -0.4877342138    5.6390153636
H        3.6683854050   -2.0734521796    2.5805921009
H        3.8229863824   -2.0170558610    0.1107122788
15   

H        1.9716838616   -1.0475018700   -1.2388639985
C        1.9132133944   -1.0499014996   -0.1538816234
C        2.9316319921   -1.6363231867    0.6029275487
C        2.8559176633   -1.6392787990    2.0013721641
C        1.7711758701   -1.0614683951    2.6583320889
C        0.7462428456   -0.4710201735    1.8892632532
C        0.8193502885   -0.4666599149    0.4912754583
H        0.0247347506   -0.0093774586   -0.0914311947
H       -0.1134979938   -0.0118416569    2.3706635235
C        1.7452535820   -1.0947464362    4.1362315885
O        2.6010901807   -1.5895811598    4.8276185173
O        0.6531705373   -0.5093032569    4.6816360757
H        0.7779855978   -0.6089905244    5.6367401788
H        3.6566943113   -2.0997823934    2.5761518044
H        3.7841534034   -2.0910886753    0.1064278189
15   

H        1.9428076642   -1.0963265330   -1.2386206826
C        1.8962403977   -1.0779963445   -0.1532146628
C        2.9074101637   -1.6776606942    0.6032335777
C        2.8472829559   -1.6530115717    2.0022310415
C        1.7877701653   -1.0308317694    2.6592356365
C        0.7669185227   -0.4332590551    1.8913606750
C        0.8243399512   -0.4558377879    0.4928025931
H        0.0346394679    0.0102380284   -0.0896114886
H       -0.0752451897    0.0541543517    2.3761406813
C        1.7680236527   -1.0466950957    4.1378279895
O        2.7114770644   -1.3258307833    4.8353945750
O        0.5776467981   -0.6891319685    4.6743415227
H        0.7186744676   -0.7414899920    5.6309333180
H        3.6406251185   -2.1237624338    2.5789887225
H        3.7419410885   -2.1639322153    0.1060330527
15   

H        1.9153631450   -1.1385433417   -1.2355603928
C        1.8803407027   -1.1010636489   -0.1502143031
C        2.8824904785   -1.7163504252    0.6063618251
C        2.8371716160   -1.6662333475    2.0052864486
C        1.8045831785   -0.9994947031    2.6597614547
C        0.7894754929   -0.3928887259    1.8941244897
C        0.8314053050   -0.4399962484    0.4956125142
H        0.0476185944    0.0360689483   -0.0866953497
H       -0.0337981857    0.1199001774    2.3852617430
C        1.7840533419   -0.9976994261    4.1397371598
O        2.7616547916   -1.0494982360    4.8426783265
O        0.5419963233   -0.8781711816    4.6641647146
H        0.6825919655   -0.8797911513    5.6221883016
H        3.6205531474   -2.1476984958    2.5866197778
H        3.6978778341   -2.2341901928    0.1092898720
15   

H        1.8897885471   -1.1733133482   -1.2310668324
C        1.8653334566   -1.1182854550   -0.1461793189
C        2.8555599868   -1.7517524340    0.6116653525
C        2.8236111673   -1.6785019759    2.0100256110
C        1.8194261163   -0.9679417384    2.6602269800
C        0.8133141568   -0.3486647135    1.8959987635
C        0.8408629913   -0.4178572430    0.4980395816
H        0.0649281032    0.0702531035   -0.0847944143
H        0.0095097761    0.1890632760    2.3926614611
C        1.7934632355   -0.9448832003    4.1430370010
O        2.7502839752   -0.7666230362    4.8516483970
O        0.5468235110   -1.0710522296    4.6534142371
H        0.6707530895   -1.0215068001    5.6123669005
H        3.5954054342   -2.1730660160    2.5954347233
H        3.6506074578   -2.3015122647    0.1159360317
15   

H        1.8737423660   -1.2017557823   -1.2273507029
C        1.8548462330   -1.1316259155   -0.1432239723
C        2.8265000289   -1.7872610362    0.6201857118
C        2.8015836751   -1.6941567534    2.0176222523
C        1.8244835839   -0.9416422295    2.6591073548
C        0.8359084866   -0.3018940454    1.8917929695
C        0.8555583136   -0.3900063762    0.4947747980
H        0.0933613928    0.1148170791   -0.0919292422
H        0.0524892079    0.2650270801    2.3883440276
C        1.7910699962   -0.8900048866    4.1451899715
O        2.6770102737   -0.4859195492    4.8509845332
O        0.5974316725   -1.2735989304    4.6513723266
H        0.6957151722   -1.1751650403    5.6094104279
H        3.5577813762   -2.2057522917    2.6082061339
H        3.6011909282   -2.3695063859    0.1293577513
15   

H        1.8759995415   -1.2160204420   -1.2250222555
C        1.8528364266   -1.1344716198   -0.1417763714
C        2.7940675189   -1.8190156491    0.6345526419
C        2.7635605273   -1.7112254378    2.0308891714
C        1.8088804705   -0.9196584023    2.6566764989
C        0.8546020982   -0.2450459141    1.8781735564
C        0.8795083502   -0.3474845073    0.4821814858
H        0.1425695494    0.1823020590   -0.1146977944
H        0.0943228503    0.3599544885    2.3653961812
C        1.7699864762   -0.8345619914    4.1451889787
O        2.5399579867   -0.2183024690    4.8314923067
O        0.7111894862   -1.4888761915    4.6709678982
H        0.7854869267   -1.3478610573    5.6257267901
H        3.4961595051   -2.2446400150    2.6313902900
H        3.5494057922   -2.4346845456    0.1544815520
15   

H        1.9106463134   -1.2132798443   -1.2245240868
C        1.8684752818   -1.1259018962   -0.1423056241
C        2.7633788375   -1.8466282688    0.6560121875
C        2.7082077333   -1.7317931572    2.0510529156
C        1.7676188039   -0.9061614372    2.6526979286
C        0.8706337826   -0.1813079552    1.8528038506
C        0.9201929104   -0.2911096071    0.4579934639
H        0.2238365187    0.2723217266   -0.1565536511
H        0.1363158115    0.4686375749    2.3215827745
C        1.7235761227   -0.7864501195    4.1403386036
O        2.3327034541    0.0170083868    4.7929140153
O        0.9060161236   -1.6989688928    4.7090249803
H        0.9623976631   -1.5211188780    5.6587943151
H        3.4062957725   -2.2911158635    2.6686158697
H        3.5024427778   -2.4949347773    0.1939343639
15   

H        1.9514589746   -1.2012025016   -1.2237348080
C        1.8846858854   -1.1143239490   -0.1427147588
C        2.7255949041   -1.8757497665    0.6763718972
C        2.6387926198   -1.7617487095    2.0698606993
C        1.7112838138   -0.9050314319    2.6491887415
C        0.8813272153   -0.1260184570    1.8284340174
C        0.9626036899   -0.2353269719    0.4350658661
H        0.3135513237    0.3652754422   -0.1958547438
H        0.1751467470    0.5660281819    2.2801733618
C        1.6627618949   -0.7599451383    4.1322855712
O        2.0749866191    0.1840223909    4.7509295601
O        1.1552723620   -1.8515431629    4.7458385630
H        1.1938189721   -1.6422232556    5.6901252494
H        3.2972845829   -2.3501693944    2.7037172282
H        3.4482933363   -2.5539634108    0.2316792562
15   

H        1.9884371081   -1.1981650176   -1.2223625239
C        1.8991887577   -1.1130826107   -0.1428234480
C        2.6940573969   -1.9055242310    0.6924245472
C        2.5786775198   -1.7936236373    2.0840394834
C        1.6632464380   -0.9118247996    2.6466060274
C        0.8864790597   -0.0964145579    1.8086654423
C        0.9963993334   -0.2033864107    0.4171703207
H        0.3858347920    0.4242417903   -0.2257645857
H        0.1995353901    0.6233007257    2.2472007256
C        1.5962172013   -0.7529411735    4.1231769655
O        1.7812278409    0.2768966197    4.7161987547
O        1.3882958555   -1.9219329368    4.7700343213
H        1.3891278582   -1.6851463906    5.7087231027
H        3.2045984855   -2.4055529270    2.7287730347
H        3.4041935340   -2.6057700229    0.2618735183
15   

H        2.0149339800   -1.1944322080   -1.2224245871
C        1.9110695426   -1.1123760442   -0.1439587172
C        2.6681624199   -1.9321734786    0.6994124768
C        2.5343907127   -1.8244161650    2.0897965145
C        1.6372851376   -0.9181310888    2.6452160037
C        0.8985799499   -0.0768990365    1.7970065713
C        1.0272189186   -0.1795053946    0.4069591033
H        0.4454694065    0.4694590317   -0.2415043071
H        0.2252776996    0.6605276929    2.2278632410
C        1.5411137294   -0.7595713251    4.1160844188
O        1.4896788121    0.2955801061    4.6937603843
O        1.5886681608   -1.9344706149    4.7856498343
H        1.5339184169   -1.6844279689    5.7194172530
H        3.1353303782   -2.4599845981    2.7355706116
H        3.3639675898   -2.6510251466    0.2761808727
15   

H        2.0402002093   -1.1866133717   -1.2236653389
C        1.9256969787   -1.1083611576   -0.1459941243
C        2.6489191056   -1.9537220185    0.7011597966
C        2.5017324774   -1.8517468180    2.0907549812
C        1.6270710150   -0.9213588956    2.6441673895
C        0.9177726240   -0.0597296117    1.7893954028
C        1.0602990566   -0.1566409029    0.4005046963
H        0.5019808539    0.5104184422   -0.2502094194
H        0.2537902567    0.6897964002    2.2143292684
C        1.4956788248   -0.7734899047    4.1107672385
O        1.2113706235    0.2520767369    4.6764130352
O        1.7685969999   -1.9065803614    4.7996519594
H        1.6504826334   -1.6593302306    5.7283874901
H        3.0806695076   -2.5125293524    2.7312409198
H        3.3291013302   -2.6893789150    0.2814060923
15   

H        2.0648564231   -1.1740138321   -1.2244973920
C        1.9406981835   -1.1009756293   -0.1475279570
C        2.6308873995   -1.9717975209    0.7007474671
C        2.4713770199   -1.8775965807    2.0896518253
C        1.6211151905   -0.9241232014    2.6435138155
C        0.9377975262   -0.0436194631    1.7849997628
C        1.0931478745   -0.1330581752    0.3971575960
H        0.5565661165    0.5511432206   -0.2540589833
H        0.2815483624    0.7154943259    2.2051743643
C        1.4546560578   -0.7934231178    4.1070663019
O        0.9511230189    0.1524037904    4.6606374231
O        1.9392465799   -1.8416918201    4.8143205935
H        1.7608447055   -1.6120767017    5.7380177888
H        3.0265184003   -2.5652944363    2.7226415011
H        3.2946109550   -2.7230500847    0.2822494508
15   

H        2.1248479655   -1.0886097035   -1.2217068625
C        1.9689205491   -1.0630879203   -0.1466950816
C        3.0551203990   -1.1833803610    0.7247592606
C        2.8547364967   -1.1505359610    2.1112145931
C        1.5758198306   -0.9981885517    2.6410089043
C        0.4868535537   -0.8776673334    1.7576335602
C        0.6811191772   -0.9097913365    0.3722462959
H       -0.1692853070   -0.8155215044   -0.2971323841
H       -0.5184873208   -0.7580303662    2.1557490803
C        1.3386134267   -0.9604966406    4.0999134626
O        0.2563915372   -0.8311031359    4.6169866066
O        2.4596394854   -1.0856136361    4.8494203401
H        2.1436198445   -1.0425285936    5.7637993657
H        3.7224386983   -1.2469562409    2.7588657599
H        4.0585607905   -1.3027877545    0.3261256816
