15   

H        2.1271735152   -1.0610760467   -1.2209000630
C        1.9701880185   -1.0475306052   -0.1458256074
C        3.0517400159   -1.2090819533    0.7250415203
C        2.8496035073   -1.1921327329    2.1114852719
C        1.5750217493   -1.0076583079    2.6408529889
C        0.4892273868   -0.8565668079    1.7591057510
C        0.6850900461   -0.8725848239    0.3736021891
H       -0.1620525536   -0.7512160819   -0.2955417509
H       -0.5139387198   -0.7261740814    2.1592543451
C        1.3363139185   -1.0078945632    4.1002347776
O        0.2532049108   -1.1124393342    4.6203504509
O        2.4619677759   -0.8943830254    4.8444945205
H        2.1477966383   -0.9106831673    5.7603534747
H        3.7100954716   -1.3264421686    2.7621009850
H        4.0522035702   -1.3500578280    0.3259820681
15   

H        2.1246473249   -1.0335677156   -1.2187905137
C        1.9683865643   -1.0309926298   -0.1435298068
C        3.0460703831   -1.2339596915    0.7240858415
C        2.8439185366   -1.2315988433    2.1105081007
C        1.5758451323   -1.0141948099    2.6412102956
C        0.4920431795   -0.8312814162    1.7648196812
C        0.6874089432   -0.8324312478    0.3789791854
H       -0.1568539203   -0.6835924032   -0.2882415114
H       -0.5072725758   -0.6894836752    2.1703957964
C        1.3412519635   -1.0533571554    4.1018528964
O        0.3073808204   -1.3862309155    4.6242305881
O        2.4261717184   -0.7149024618    4.8376101260
H        2.1290431570   -0.7916060573    5.7560133068
H        3.6941522783   -1.4007107345    2.7666543143
H        4.0421658854   -1.3970850131    0.3225687418
15   

H        2.1177431495   -1.0081096467   -1.2164901196
C        1.9639218958   -1.0165900549   -0.1409080606
C        3.0381700532   -1.2616044366    0.7207711856
C        2.8382667866   -1.2736982318    2.1073376471
C        1.5785392440   -1.0245961847    2.6418248852
C        0.4961126308   -0.8062936752    1.7737735626
C        0.6889138970   -0.7926177737    0.3874298950
H       -0.1526154357   -0.6144555689   -0.2760297685
H       -0.4981077484   -0.6504706604    2.1861040786
C        1.3535862452   -1.0994281784    4.1052591957
O        0.4186322885   -1.6454844608    4.6319319426
O        2.3541347849   -0.5472873598    4.8298364565
H        2.0881459452   -0.6791024808    5.7514193089
H        3.6787827013   -1.4750823645    2.7669420113
H        4.0284889429   -1.4467075159    0.3145410913
15   

H        2.1067586600   -0.9837346932   -1.2155328268
C        1.9581488549   -1.0062316941   -0.1394204237
C        3.0296469166   -1.2973337261    0.7117965575
C        2.8360211088   -1.3272371152    2.0988945858
C        1.5870224546   -1.0499659896    2.6422061447
C        0.5058383960   -0.7862553842    1.7866920362
C        0.6923813298   -0.7543646781    0.3996199188
H       -0.1466354528   -0.5407651392   -0.2565032265
H       -0.4808957416   -0.6098540720    2.2079199480
C        1.3771912808   -1.1498826846    4.1105338262
O        0.5893811345   -1.8830960933    4.6473983084
O        2.2370593814   -0.3838130236    4.8190275754
H        2.0116152734   -0.5557705199    5.7446681726
H        3.6699107056   -1.5622609007    2.7556355268
H        4.0120815159   -1.5040917006    0.2969651599
15   

H        2.0896327059   -0.9507977734   -1.2157595212
C        1.9514565960   -0.9933206864   -0.1388611818
C        3.0217368088   -1.3390519557    0.6934669546
C        2.8415329041   -1.3943200049    2.0815640886
C        1.6068408550   -1.0943136274    2.6431597313
C        0.5275817053   -0.7671179458    1.8080124927
C        0.7008670661   -0.7096809606    0.4199554324
H       -0.1361632425   -0.4497560961   -0.2218174069
H       -0.4463830095   -0.5603795420    2.2442916833
C        1.4183718898   -1.2028539988    4.1181781231
O        0.8236936331   -2.0837055336    4.6786978889
O        2.0538784705   -0.2230846802    4.7977099574
H        1.8716496656   -0.4128125026    5.7292537906
H        3.6732220181   -1.6688497965    2.7254211047
H        3.9926307392   -1.5674594554    0.2631027999
15   

H        2.0780868701   -0.9098247416   -1.2148586024
C        1.9525835234   -0.9734706279   -0.1374505026
C        3.0178275723   -1.3854871690    0.6707002861
C        2.8537545594   -1.4680159714    2.0594546257
C        1.6377601395   -1.1415041076    2.6452017903
C        0.5679591453   -0.7298468927    1.8353318092
C        0.7247766941   -0.6452632296    0.4467129322
H       -0.1065118667   -0.3263709684   -0.1756232321
H       -0.3858865412   -0.4777536967    2.2914383464
C        1.4730089987   -1.2405544486    4.1258747246
O        1.1012532053   -2.2147593928    4.7218263265
O        1.7928662216   -0.0917310172    4.7602209461
H        1.6470276244   -0.2803550789    5.6983165489
H        3.6824125363   -1.7907054666    2.6845548205
H        3.9726394167   -1.6427916978    0.2210765889
15   

H        2.0619301034   -0.8790491218   -1.2142883778
C        1.9514689615   -0.9557135377   -0.1360818641
C        3.0114372713   -1.4250708505    0.6471003907
C        2.8664447572   -1.5247666222    2.0368281587
C        1.6710777304   -1.1693990617    2.6487218174
C        0.6126024618   -0.6836217901    1.8642054905
C        0.7500735225   -0.5820555474    0.4747114652
H       -0.0749028161   -0.2118183609   -0.1272486178
H       -0.3175966386   -0.3865707158    2.3416222143
C        1.5383119488   -1.2544280516    4.1318157707
O        1.4097146879   -2.2666544531    4.7662480239
O        1.5122974298   -0.0369474742    4.7172102842
H        1.4075159599   -0.2213767369    5.6616553635
H        3.6920747202   -1.8895830289    2.6426976554
H        3.9478265519   -1.7126184128    0.1774794166
15   

H        2.0487283019   -0.8846210899   -1.2172489164
C        1.9501733236   -0.9588595977   -0.1377205056
C        3.0022850268   -1.4686811816    0.6303329524
C        2.8726607065   -1.5653425127    2.0217252364
C        1.6979208442   -1.1710126480    2.6518016138
C        0.6503152057   -0.6382454906    1.8810805980
C        0.7728985425   -0.5398083533    0.4900044318
H       -0.0447275888   -0.1354386714   -0.0998982475
H       -0.2602934042   -0.3018336993    2.3702923537
C        1.5964290045   -1.2427548451    4.1339544843
O        1.7085418184   -2.2410864406    4.7950790157
O        1.2701386206   -0.0543680447    4.6902013033
H        1.2142211473   -0.2364166978    5.6393678685
H        3.6927049438   -1.9612306015    2.6159929329
H        3.9210358790   -1.7898442057    0.1478198347
15   

H        2.0333481920   -0.9131400729   -1.2227800443
C        1.9445723111   -0.9746812430   -0.1416054212
C        2.9880041333   -1.5117233180    0.6193108896
C        2.8713850995   -1.5919213787    2.0127836059
C        1.7174240984   -1.1528007744    2.6543384806
C        0.6776824709   -0.5944719355    1.8881686184
C        0.7885130073   -0.5127328601    0.4950169623
H       -0.0224196061   -0.0880495285   -0.0898372943
H       -0.2191298818   -0.2253044757    2.3794631482
C        1.6441545613   -1.2154775829    4.1344176728
O        1.9849076384   -2.1537229375    4.8074671940
O        1.0718718648   -0.1194502489    4.6837192290
H        1.0708236059   -0.2971073624    5.6354755660
H        3.6854929489   -2.0098007122    2.6006347211
H        3.8902879406   -1.8671374233    0.1297716657
15   

H        2.0177214621   -0.9530388726   -1.2296521407
C        1.9381291149   -0.9963335106   -0.1468788187
C        2.9725888535   -1.5530641709    0.6115626612
C        2.8683765349   -1.6096800419    2.0070876944
C        1.7361895746   -1.1234446828    2.6558132027
C        0.7023970270   -0.5507019795    1.8890971998
C        0.8022460317   -0.4928424437    0.4939286289
H       -0.0027081357   -0.0551395338   -0.0896012179
H       -0.1835731078   -0.1515387202    2.3766151120
C        1.6838699788   -1.1792633719    4.1339537702
O        2.2303402313   -2.0124054923    4.8120087637
O        0.9059708457   -0.2185096835    4.6851732479
H        0.9568784517   -0.3830016863    5.6380266610
H        3.6777040850   -2.0441231799    2.5899185172
H        3.8587785186   -1.9425880741    0.1185777775
15   

H        1.9967622567   -0.9985491509   -1.2355066927
C        1.9271954809   -1.0218996594   -0.1514283076
C        2.9532645752   -1.5945607806    0.6058808586
C        2.8626774277   -1.6251127168    2.0031200482
C        1.7537231703   -1.0925346466    2.6572694761
C        0.7245635083   -0.5100197213    1.8889142353
C        0.8119451738   -0.4783034845    0.4920856192
H        0.0122839094   -0.0302806387   -0.0909041543
H       -0.1498627655   -0.0810755993    2.3718313178
C        1.7167859944   -1.1395533839    4.1348693982
O        2.4373567390   -1.8226228019    4.8195694351
O        0.7649304279   -0.3497080973    4.6851518504
H        0.8588034974   -0.4876053090    5.6390230171
H        3.6683853471   -2.0734523464    2.5805920397
H        3.8229864384   -2.0170559894    0.1107123072
15   

H        1.9716838489   -1.0475017396   -1.2388639842
C        1.9132133874   -1.0499014128   -0.1538816078
C        2.9316319824   -1.6363231402    0.6029275438
C        2.8559176633   -1.6392787990    2.0013721641
C        1.7711758701   -1.0614683951    2.6583320889
C        0.7462428460   -0.4710201406    1.8892632786
C        0.8193502845   -0.4666598361    0.4912754893
H        0.0247347484   -0.0093773436   -0.0914311378
H       -0.1134979897   -0.0118416278    2.3706635628
C        1.7452535820   -1.0947464362    4.1362315885
O        2.6010901807   -1.5895811598    4.8276185173
O        0.6531705633   -0.5093032082    4.6816360812
H        0.7779856804   -0.6089903627    5.6367401887
H        3.6566943040   -2.0997824141    2.5761517979
H        3.7841533848   -2.0910886267    0.1064277932
15   

H        1.9428084097   -1.0963255744   -1.2386207522
C        1.8962409399   -1.0779956754   -0.1532147350
C        2.9074102797   -1.6776606383    0.6032335747
C        2.8472829559   -1.6530115717    2.0022310415
C        1.7877701653   -1.0308317694    2.6592356365
C        0.7669194915   -0.4332574519    1.8913605283
C        0.8243410428   -0.4558361475    0.4928024603
H        0.0346413367    0.0102410047   -0.0896116048
H       -0.0752431565    0.0541580193    2.3761403774
C        1.7680236527   -1.0466950957    4.1378279895
O        2.7114770644   -1.3258307833    4.8353945750
O        0.5776517995   -0.6891152093    4.6743416183
H        0.7186243887   -0.7416526488    5.6309316785
H        3.6406252339   -2.1237622878    2.5789886704
H        3.7419411691   -2.1639322370    0.1060330685
15   

H        1.9153642389   -1.1385417621   -1.2355605352
C        1.8803415355   -1.1010625346   -0.1502144366
C        2.8824905688   -1.7163503798    0.6063618046
C        2.8371716160   -1.6662333475    2.0052864486
C        1.8045831785   -0.9994947031    2.6597614547
C        0.7894774165   -0.3928856294    1.8941242028
C        0.8314073114   -0.4399932076    0.4956122602
H        0.0476220403    0.0360744961   -0.0866954954
H       -0.0337939726    0.1199072133    2.3852614768
C        1.7840533419   -0.9976994261    4.1397371598
O        2.7616547916   -1.0494982360    4.8426783265
O        0.5419986190   -0.8781406108    4.6641638716
H        0.6825561694   -0.8801595235    5.6221922264
H        3.6205535723   -2.1476981138    2.5866194654
H        3.6978778297   -2.2341902344    0.1092897870
15   

H        1.8897886034   -1.1733117203   -1.2310668104
C        1.8653335663   -1.1182844013   -0.1461792667
C        2.8555596018   -1.7517524148    0.6116652866
C        2.8236111673   -1.6785019759    2.0100256110
C        1.8194261163   -0.9679417384    2.6602269800
C        0.8133160804   -0.3486614821    1.8959988168
C        0.8408645442   -0.4178541316    0.4980396938
H        0.0649309975    0.0702589120   -0.0847938351
H        0.0095146731    0.1890704295    2.3926626984
C        1.7934632355   -0.9448832003    4.1430370010
O        2.7502839752   -0.7666230362    4.8516483970
O        0.5468176257   -1.0710112954    4.6534114132
H        0.6708118286   -1.0220529925    5.6123857586
H        3.5954065304   -2.1730651913    2.5954338429
H        3.6506069207   -2.3015120646    0.1159355191
15   

H        1.8737393407   -1.2017562285   -1.2273502542
C        1.8548440423   -1.1316265867   -0.1432234941
C        2.8264986433   -1.7872614367    0.6201856174
C        2.8015836751   -1.6941567534    2.0176222523
C        1.8244835839   -0.9416422295    2.6591073548
C        0.8359084388   -0.3018934689    1.8917938236
C        0.8555569058   -0.3900063319    0.4947757554
H        0.0933598182    0.1148180514   -0.0919272707
H        0.0524912326    0.2650287765    2.3883476755
C        1.7910699962   -0.8900048866    4.1451899715
O        2.6770102737   -0.4859195492    4.8509845332
O        0.5974143317   -1.2735537219    4.6513673940
H        0.6959136754   -1.1757503298    5.6094477776
H        3.5577836198   -2.2057505556    2.6082045495
H        3.6011895567   -2.3695059331    0.1293566680
15   

H        1.8759940984   -1.2160238484   -1.2250215891
C        1.8528323640   -1.1344745498   -0.1417757120
C        2.7940655380   -1.8190167339    0.6345525962
C        2.7635605273   -1.7112254378    2.0308891714
C        1.8088804705   -0.9196584023    2.6566764989
C        0.8545995179   -0.2450487227    1.8781747241
C        0.8795038641   -0.3474883928    0.4821827717
H        0.1425631563    0.1822966985   -0.1146954635
H        0.0943201665    0.3599498152    2.3654000471
C        1.7699864762   -0.8345619914    4.1451889787
O        2.5399579867   -0.2183024690    4.8314923067
O        0.7111670837   -1.4888439667    4.6709636935
H        0.7857339313   -1.3482377094    5.6257618301
H        3.4961622500   -2.2446378616    2.6313886277
H        3.5494040898   -2.4346844991    0.1544804955
15   

H        1.9106466968   -1.2132794077   -1.2245241086
C        1.8684755669   -1.1259015660   -0.1423056412
C        2.7633789684   -1.8466281175    0.6560121811
C        2.7082077333   -1.7317931572    2.0510529156
C        1.7676188039   -0.9061614372    2.6526979286
C        0.8706340067   -0.1813076920    1.8528038345
C        0.9201932469   -0.2911092156    0.4579934405
H        0.2238370005    0.2723222798   -0.1565536907
H        0.1363161112    0.4686379492    2.3215827159
C        1.7235761227   -0.7864501195    4.1403386036
O        2.3327034541    0.0170083868    4.7929140153
O        0.9060190943   -1.6989713788    4.7090252649
H        0.9623960591   -1.5211175530    5.6587941587
H        3.4062956333   -2.2911159958    2.6686159121
H        3.5024428928   -2.4949346495    0.1939343665
15   

H        1.9514649674   -1.2011993940   -1.2237352138
C        1.8846902795   -1.1143213825   -0.1427152214
C        2.7255968492   -1.8757490941    0.6763720552
C        2.6387926198   -1.7617487095    2.0698606993
C        1.7112838138   -0.9050314319    2.6491887415
C        0.8813311033   -0.1260149312    1.8284329913
C        0.9626093227   -0.2353227271    0.4350648122
H        0.3135598714    0.3652819609   -0.1958566311
H        0.1751526077    0.5660348184    2.2801703527
C        1.6627618949   -0.7599451383    4.1322855712
O        2.0749866191    0.1840223909    4.7509295601
O        1.1553141292   -1.8515623798    4.7458396512
H        1.1933852583   -1.6420389696    5.6901004348
H        3.2972820066   -2.3501702307    2.7037195856
H        3.4482951300   -2.5539636684    0.2316805854
15   

H        1.9884390146   -1.1981663589   -1.2223627798
C        1.8991899116   -1.1130835187   -0.1428238033
C        2.6940577870   -1.9055251805    0.6924247554
C        2.5786775198   -1.7936236373    2.0840394834
C        1.6632464380   -0.9118247996    2.6466060274
C        0.8864810903   -0.0964131292    1.8086645163
C        0.9964016027   -0.2033858582    0.4171694006
H        0.3858390011    0.4242434149   -0.2257662977
H        0.1995396076    0.6233052063    2.2471979245
C        1.5962172013   -0.7529411735    4.1231769655
O        1.7812278409    0.2768966197    4.7161987547
O        1.3883474185   -1.9219428023    4.7700344687
H        1.3884978225   -1.6850541748    5.7086977190
H        3.2045983975   -2.4055511370    2.7287754725
H        3.4041944088   -2.6057712704    0.2618750114
15   

H        2.0149315524   -1.1944359892   -1.2224247749
C        1.9110673815   -1.1123789454   -0.1439589503
C        2.6681612296   -1.9321751060    0.6994125401
C        2.5343907127   -1.8244161650    2.0897965145
C        1.6372851376   -0.9181310888    2.6452160037
C        0.8985796426   -0.0768995432    1.7970060996
C        1.0272174070   -0.1795075294    0.4069586020
H        0.4454682608    0.4694567855   -0.2415052437
H        0.2252789474    0.6605290874    2.2278617737
C        1.5411137294   -0.7595713251    4.1160844188
O        1.4896788121    0.2955801061    4.6937603843
O        1.5887128953   -1.9344688736    4.7856508105
H        1.5334055804   -1.6844649976    5.7193956376
H        3.1353330982   -2.4599816503    2.7355714383
H        3.3639672647   -2.6510263662    0.2761816705
15   

H        2.0401965162   -1.1866168024   -1.2236655143
C        1.9256939726   -1.1083638103   -0.1459942848
C        2.6489175719   -1.9537232894    0.7011597307
C        2.5017324774   -1.8517468180    2.0907549812
C        1.6270710150   -0.9213588956    2.6441673895
C        0.9177713401   -0.0597307121    1.7893952730
C        1.0602962777   -0.1566433520    0.4005045055
H        0.5019775834    0.5104154492   -0.2502097457
H        0.2537897492    0.6897961113    2.2143288574
C        1.4956788248   -0.7734899047    4.1107672385
O        1.2113706235    0.2520767369    4.6764130352
O        1.7686314482   -1.9065711732    4.7996539162
H        1.6502075229   -1.6594066973    5.7283727773
H        3.0806725663   -2.5125272443    2.7312405029
H        3.3291005358   -2.6893796193    0.2814062287
15   

H        2.0648548846   -1.1740149725   -1.2244974818
C        1.9406968796   -1.1009765796   -0.1475280323
C        2.6308867790   -1.9717979115    0.7007474101
C        2.4713770199   -1.8775965807    2.0896518253
C        1.6211151905   -0.9241232014    2.6435138155
C        0.9377967674   -0.0436200422    1.7849997472
C        1.0931465144   -0.1330591951    0.3971575447
H        0.5565644798    0.5511419892   -0.2540590337
H        0.2815478495    0.7154939569    2.2051743409
C        1.4546560578   -0.7934231178    4.1070663019
O        0.9511230189    0.1524037904    4.6606374231
O        1.9392660568   -1.8416818763    4.8143220824
H        1.7607563098   -1.6121215012    5.7380120342
H        3.0265197577   -2.5652937180    2.7226411147
H        3.2946107350   -2.7230501278    0.2822493964
15   

H        2.1248479368   -1.0886097012   -1.2217068580
C        1.9689205305   -1.0630879177   -0.1466950751
C        3.0551203909   -1.1833803581    0.7247592596
C        2.8547364967   -1.1505359610    2.1112145931
C        1.5758198306   -0.9981885517    2.6410089043
C        0.4868535476   -0.8776673238    1.7576335747
C        0.6811191601   -0.9097913298    0.3722463101
H       -0.1692853369   -0.8155215009   -0.2971323556
H       -0.5184873187   -0.7580303479    2.1557491163
C        1.3386134267   -0.9604966406    4.0999134626
O        0.2563915372   -0.8311031359    4.6169866066
O        2.4596394785   -1.0856136621    4.8494203492
H        2.1436198280   -1.0425286605    5.7637993755
H        3.7224387000   -1.2469562421    2.7588657573
H        4.0585607857   -1.3027877399    0.3261256801
