15   

H        2.1271734973   -1.0610759665   -1.2209000564
C        1.9701880094   -1.0475305405   -0.1458256007
C        3.0517400099   -1.2090819341    0.7250415177
C        2.8496035073   -1.1921327329    2.1114852719
C        1.5750217493   -1.0076583079    2.6408529889
C        0.4892273886   -0.8565667566    1.7591057617
C        0.6850900416   -0.8725847374    0.3736022007
H       -0.1620525585   -0.7512159509   -0.2955417304
H       -0.5139387088   -0.7261739972    2.1592543681
C        1.3363139185   -1.0078945632    4.1002347776
O        0.2532049108   -1.1124393342    4.6203504509
O        2.4619677793   -0.8943830288    4.8444945144
H        2.1477966605   -0.9106833223    5.7603534709
H        3.7100954708   -1.3264421953    2.7621009804
H        4.0522035569   -1.3500578262    0.3259820520
15   

H        2.1246472394   -1.0335678996   -1.2187905134
C        1.9683865056   -1.0309927539   -0.1435298036
C        3.0460703501   -1.2339597456    0.7240858353
C        2.8439185366   -1.2315988433    2.1105081007
C        1.5758451323   -1.0141948099    2.6412102956
C        0.4920431592   -0.8312814680    1.7648196966
C        0.6874088886   -0.8324313764    0.3789791998
H       -0.1568540027   -0.6835926115   -0.2882414830
H       -0.5072725885   -0.6894837332    2.1703958313
C        1.3412519635   -1.0533571554    4.1018528964
O        0.3073808204   -1.3862309155    4.6242305881
O        2.4261717393   -0.7149025244    4.8376101263
H        2.1290433342   -0.7916066183    5.7560133176
H        3.6941522936   -1.4007107021    2.7666543025
H        4.0421658468   -1.3970850719    0.3225687215
15   

H        2.1177431126   -1.0081097459   -1.2164901276
C        1.9639218713   -1.0165901298   -0.1409080660
C        3.0381700414   -1.2616044676    0.7207711801
C        2.8382667866   -1.2736982318    2.1073376471
C        1.5785392440   -1.0245961847    2.6418248852
C        0.4961126229   -0.8062937072    1.7737735683
C        0.6889138738   -0.7926178492    0.3874298970
H       -0.1526154722   -0.6144556779   -0.2760297574
H       -0.4981077506   -0.6504706998    2.1861040983
C        1.3535862452   -1.0994281784    4.1052591957
O        0.4186322885   -1.6454844608    4.6319319426
O        2.3541347950   -0.5472873838    4.8298364617
H        2.0881463940   -0.6791033248    5.7514193239
H        3.6787827139   -1.4750823366    2.7669420030
H        4.0284889306   -1.4467075374    0.3145410774
15   

H        2.1067586665   -0.9837345606   -1.2155328165
C        1.9581488577   -1.0062316064   -0.1394204130
C        3.0296469209   -1.2973336665    0.7117965584
C        2.8360211088   -1.3272371152    2.0988945858
C        1.5870224546   -1.0499659896    2.6422061447
C        0.5058383887   -0.7862553854    1.7866920457
C        0.6923813258   -0.7543646341    0.3996199300
H       -0.1466354606   -0.5407650948   -0.2565032125
H       -0.4808957517   -0.6098541156    2.2079199692
C        1.3771912808   -1.1498826846    4.1105338262
O        0.5893811345   -1.8830960933    4.6473983084
O        2.2370595044   -0.3838131625    4.8190275765
H        2.0116162670   -0.5557716596    5.7446681977
H        3.6699107067   -1.5622609264    2.7556355152
H        4.0120815217   -1.5040916174    0.2969651566
15   

H        2.0896328050   -0.9507975304   -1.2157595046
C        1.9514566648   -0.9933205181   -0.1388611725
C        3.0217368476   -1.3390518757    0.6934669630
C        2.8415329041   -1.3943200049    2.0815640886
C        1.6068408550   -1.0943136274    2.6431597313
C        0.5275817348   -0.7671178494    1.8080124913
C        0.7008671324   -0.7096807836    0.4199554363
H       -0.1361631493   -0.4497558388   -0.2218174047
H       -0.4463829780   -0.5603794168    2.2442916730
C        1.4183718898   -1.2028539988    4.1181781231
O        0.8236936331   -2.0837055336    4.6786978889
O        2.0538785860   -0.2230847629    4.7977099687
H        1.8716506116   -0.4128131662    5.7292538481
H        3.6732219947   -1.6688498557    2.7254211089
H        3.9926307850   -1.5674593614    0.2631028115
15   

H        2.0780868629   -0.9098247732   -1.2148586071
C        1.9525835208   -0.9734706472   -0.1374505066
C        3.0178275784   -1.3854871651    0.6707002849
C        2.8537545594   -1.4680159714    2.0594546257
C        1.6377601395   -1.1415041076    2.6452017903
C        0.5679591456   -0.7298468963    1.8353318030
C        0.7247766896   -0.6452632540    0.4467129236
H       -0.1065118759   -0.3263710090   -0.1756232459
H       -0.3858865413   -0.4777536940    2.2914383324
C        1.4730089987   -1.2405544486    4.1258747246
O        1.1012532053   -2.2147593928    4.7218263265
O        1.7928662111   -0.0917310143    4.7602209478
H        1.6470276092   -0.2803550743    5.6983165504
H        3.6824125392   -1.7907054608    2.6845548194
H        3.9726394271   -1.6427916783    0.2210765858
15   

H        2.0619300850   -0.8790492347   -1.2142883981
C        1.9514689438   -0.9557136170   -0.1360818801
C        3.0114372634   -1.4250708869    0.6471003865
C        2.8664447572   -1.5247666222    2.0368281587
C        1.6710777304   -1.1693990617    2.6487218174
C        0.6126024451   -0.6836218391    1.8642054773
C        0.7500734974   -0.5820556347    0.4747114462
H       -0.0749028564   -0.2118184877   -0.1272486418
H       -0.3175966642   -0.3865707749    2.3416221911
C        1.5383119488   -1.2544280516    4.1318157707
O        1.4097146879   -2.2666544531    4.7662480239
O        1.5122973560   -0.0369474753    4.7172102798
H        1.4075149293   -0.2213767218    5.6616552563
H        3.6920747251   -1.8895830024    2.6426976653
H        3.9478265510   -1.7126184461    0.1774794207
15   

H        2.0487282575   -0.8846210913   -1.2172489087
C        1.9501732945   -0.9588595933   -0.1377204964
C        3.0022850096   -1.4686811773    0.6303329498
C        2.8726607065   -1.5653425127    2.0217252364
C        1.6979208442   -1.1710126480    2.6518016138
C        0.6503152017   -0.6382454749    1.8810806152
C        0.7728985219   -0.5398083370    0.4900044512
H       -0.0447276133   -0.1354386405   -0.0998982135
H       -0.2602933952   -0.3018336676    2.3702923844
C        1.5964290045   -1.2427548451    4.1339544843
O        1.7085418184   -2.2410864406    4.7950790157
O        1.2701385776   -0.0543680578    4.6902013039
H        1.2142199581   -0.2364169829    5.6393677489
H        3.6927049477   -1.9612305981    2.6159929300
H        3.9210358559   -1.7898442016    0.1478198212
15   

H        2.0333480981   -0.9131402285   -1.2227800618
C        1.9445722468   -0.9746813624   -0.1416054354
C        2.9880040976   -1.5117233778    0.6193108802
C        2.8713850995   -1.5919213787    2.0127836059
C        1.7174240984   -1.1528007744    2.6543384806
C        0.6776824401   -0.5944720023    1.8881686132
C        0.7885129423   -0.5127329862    0.4950169538
H       -0.0224196982   -0.0880497074   -0.0898373006
H       -0.2191299199   -0.2253045563    2.3794631371
C        1.6441545613   -1.2154775829    4.1344176728
O        1.9849076384   -2.1537229375    4.8074671940
O        1.0718717981   -0.1194502826    4.6837192245
H        1.0708226050   -0.2971078500    5.6354754765
H        3.6854929696   -2.0098006738    2.6006347199
H        3.8902878985   -1.8671374895    0.1297716474
15   

H        2.0177214686   -0.9530389225   -1.2296521438
C        1.9381291213   -0.9963335415   -0.1468788216
C        2.9725888547   -1.5530642006    0.6115626636
C        2.8683765349   -1.6096800419    2.0070876944
C        1.7361895746   -1.1234446828    2.6558132027
C        0.7023970331   -0.5507019786    1.8890971947
C        0.8022460441   -0.4928424543    0.4939286227
H       -0.0027081182   -0.0551395423   -0.0896012284
H       -0.1835730972   -0.1515387046    2.3766151022
C        1.6838699788   -1.1792633719    4.1339537702
O        2.2303402313   -2.0124054923    4.8120087637
O        0.9059708168   -0.2185097147    4.6851732520
H        0.9568779004   -0.3830021497    5.6380266193
H        3.6777040827   -2.0441231771    2.5899185227
H        3.8587785196   -1.9425881230    0.1185777931
15   

H        1.9967623811   -0.9985489410   -1.2355066885
C        1.9271955717   -1.0218995118   -0.1514283031
C        2.9532646230   -1.5945606967    0.6058808628
C        2.8626774277   -1.6251127168    2.0031200482
C        1.7537231703   -1.0925346466    2.6572694761
C        0.7245635574   -0.5100196373    1.8889142313
C        0.8119452606   -0.4783033413    0.4920856185
H        0.0122840305   -0.0302804419   -0.0909041586
H       -0.1498627001   -0.0810754715    2.3718313064
C        1.7167859944   -1.1395533839    4.1348693982
O        2.4373567390   -1.8226228019    4.8195694351
O        0.7649303834   -0.3497081494    4.6851518477
H        0.8588032053   -0.4876056490    5.6390229933
H        3.6683853171   -2.0734523994    2.5805920405
H        3.8229865005   -2.0170558863    0.1107123166
15   

H        1.9716837736   -1.0475018942   -1.2388639998
C        1.9132133377   -1.0499015136   -0.1538816219
C        2.9316319594   -1.6363231830    0.6029275391
C        2.8559176633   -1.6392787990    2.0013721641
C        1.7711758701   -1.0614683951    2.6583320889
C        0.7462428256   -0.4710201846    1.8892632659
C        0.8193502374   -0.4666599366    0.4912754725
H        0.0247346811   -0.0093774927   -0.0914311662
H       -0.1134980096   -0.0118416618    2.3706635385
C        1.7452535820   -1.0947464362    4.1362315885
O        2.6010901807   -1.5895811598    4.8276185173
O        0.6531705469   -0.5093032347    4.6816360777
H        0.7779856428   -0.6089904177    5.6367401852
H        3.6566943248   -2.0997823850    2.5761517922
H        3.7841533605   -2.0910886606    0.1064277806
15   

H        1.9428083299   -1.0963257497   -1.2386207521
C        1.8962408811   -1.0779957975   -0.1532147361
C        2.9074102540   -1.6776606977    0.6032335769
C        2.8472829559   -1.6530115717    2.0022310415
C        1.7877701653   -1.0308317694    2.6592356365
C        0.7669194609   -0.4332575095    1.8913605255
C        0.8243409830   -0.4558362652    0.4928024565
H        0.0346412522    0.0102408349   -0.0896116167
H       -0.0752432005    0.0541579388    2.3761403752
C        1.7680236527   -1.0466950957    4.1378279895
O        2.7114770644   -1.3258307833    4.8353945750
O        0.5776518174   -0.6891151819    4.6743416317
H        0.7186245267   -0.7416523317    5.6309316919
H        3.6406252556   -2.1237622506    2.5789886711
H        3.7419411456   -2.1639323015    0.1060330776
15   

H        1.9153642384   -1.1385417951   -1.2355605345
C        1.8803415372   -1.1010625575   -0.1502144376
C        2.8824905730   -1.7163503911    0.6063618064
C        2.8371716160   -1.6662333475    2.0052864486
C        1.8045831785   -0.9994947031    2.6597614547
C        0.7894774153   -0.3928856364    1.8941241951
C        0.8314073111   -0.4399932284    0.4956122524
H        0.0476220423    0.0360744621   -0.0866955170
H       -0.0337939798    0.1199072048    2.3852614592
C        1.7840533419   -0.9976994261    4.1397371598
O        2.7616547916   -1.0494982360    4.8426783265
O        0.5419986204   -0.8781405858    4.6641638734
H        0.6825562250   -0.8801588562    5.6221922219
H        3.6205535711   -2.1476981099    2.5866194704
H        3.6978778333   -2.2341902486    0.1092897924
15   

H        1.8897884526   -1.1733119069   -1.2310667981
C        1.8653334674   -1.1182845144   -0.1461792570
C        2.8555595486   -1.7517524655    0.6116652872
C        2.8236111673   -1.6785019759    2.0100256110
C        1.8194261163   -0.9679417384    2.6602269800
C        0.8133160510   -0.3486615157    1.8959988262
C        0.8408644605   -0.4178542273    0.4980397075
H        0.0649308778    0.0702587717   -0.0847938097
H        0.0095146532    0.1890704090    2.3926627086
C        1.7934632355   -0.9448832003    4.1430370010
O        2.7502839752   -0.7666230362    4.8516483970
O        0.5468176156   -1.0710111920    4.6534114121
H        0.6708117034   -1.0220518162    5.6123857184
H        3.5954065501   -2.1730651645    2.5954338400
H        3.6506068519   -2.3015121244    0.1159355056
15   

H        1.8737395369   -1.2017559832   -1.2273502665
C        1.8548441721   -1.1316264212   -0.1432235028
C        2.8264987027   -1.7872613640    0.6201856161
C        2.8015836751   -1.6941567534    2.0176222523
C        1.8244835839   -0.9416422295    2.6591073548
C        0.8359084808   -0.3018934148    1.8917938149
C        0.8555570215   -0.3900061826    0.4947757418
H        0.0933599825    0.1148182661   -0.0919272935
H        0.0524912645    0.2650288186    2.3883476622
C        1.7910699962   -0.8900048866    4.1451899715
O        2.6770102737   -0.4859195492    4.8509845332
O        0.5974142936   -1.2735536068    4.6513673887
H        0.6959132359   -1.1757490372    5.6094476938
H        3.5577835811   -2.2057506042    2.6082045574
H        3.6011896189   -2.3695058633    0.1293566721
15   

H        1.8759939613   -1.2160239317   -1.2250215752
C        1.8528322724   -1.1344746037   -0.1417756994
C        2.7940654846   -1.8190167607    0.6345525935
C        2.7635605273   -1.7112254378    2.0308891714
C        1.8088804705   -0.9196584023    2.6566764989
C        0.8545994758   -0.2450487579    1.8781747436
C        0.8795037782   -0.3474884494    0.4821827949
H        0.1425630310    0.1822966079   -0.1146954230
H        0.0943201163    0.3599497595    2.3654000799
C        1.7699864762   -0.8345619914    4.1451889787
O        2.5399579867   -0.2183024690    4.8314923067
O        0.7111670313   -1.4888438860    4.6709636876
H        0.7857333680   -1.3482368506    5.6257617500
H        3.4961622716   -2.2446378396    2.6313886213
H        3.5494040183   -2.4346845324    0.1544804739
15   

H        1.9106465086   -1.2132796637   -1.2245240969
C        1.8684754372   -1.1259017446   -0.1423056343
C        2.7633788953   -1.8466282213    0.6560121882
C        2.7082077333   -1.7317931572    2.0510529156
C        1.7676188039   -0.9061614372    2.6526979286
C        0.8706339512   -0.1813077661    1.8528038287
C        0.9201931326   -0.2911093715    0.4579934392
H        0.2238368418    0.2723220633   -0.1565536989
H        0.1363160388    0.4686378582    2.3215827045
C        1.7235761227   -0.7864501195    4.1403386036
O        2.3327034541    0.0170083868    4.7929140153
O        0.9060190806   -1.6989713641    4.7090252652
H        0.9623960567   -1.5211175366    5.6587941560
H        3.4062956741   -2.2911159454    2.6686159116
H        3.5024427942   -2.4949347890    0.1939343821
15   

H        1.9514649101   -1.2011994513   -1.2237352095
C        1.8846902358   -1.1143214249   -0.1427152180
C        2.7255968235   -1.8757491133    0.6763720579
C        2.6387926198   -1.7617487095    2.0698606993
C        1.7112838138   -0.9050314319    2.6491887415
C        0.8813310768   -0.1260149580    1.8284329931
C        0.9626092762   -0.2353227712    0.4350648134
H        0.3135598132    0.3652819032   -0.1958566308
H        0.1751525715    0.5660347762    2.2801703590
C        1.6627618949   -0.7599451383    4.1322855712
O        2.0749866191    0.1840223909    4.7509295601
O        1.1553142128   -1.8515624110    4.7458396659
H        1.1933862823   -1.6420393949    5.6901004995
H        3.2972820231   -2.3501702237    2.7037195742
H        3.4482950951   -2.5539637014    0.2316805916
15   

H        1.9884393046   -1.1981661233   -1.2223627815
C        1.8991901126   -1.1130833557   -0.1428238070
C        2.6940578913   -1.9055251029    0.6924247596
C        2.5786775198   -1.7936236373    2.0840394834
C        1.6632464380   -0.9118247996    2.6466060274
C        0.8864811775   -0.0964130532    1.8086645072
C        0.9964017908   -0.2033857012    0.4171693903
H        0.3858392694    0.4242436425   -0.2257663145
H        0.1995397063    0.6233052985    2.2471979079
C        1.5962172013   -0.7529411735    4.1231769655
O        1.7812278409    0.2768966197    4.7161987547
O        1.3883475866   -1.9219428313    4.7700344713
H        1.3884992793   -1.6850544082    5.7086977719
H        3.2045983486   -2.4055511865    2.7287754720
H        3.4041945266   -2.6057711897    0.2618750292
15   

H        2.0149313914   -1.1944361228   -1.2224247844
C        1.9110672743   -1.1123790344   -0.1439589562
C        2.6681611800   -1.9321751434    0.6994125345
C        2.5343907127   -1.8244161650    2.0897965145
C        1.6372851376   -0.9181310888    2.6452160037
C        0.8985795828   -0.0768995913    1.7970061005
C        1.0272172968   -0.1795076234    0.4069586017
H        0.4454681001    0.4694566490   -0.2415052425
H        0.2252788695    0.6605290258    2.2278617727
C        1.5411137294   -0.7595713251    4.1160844188
O        1.4896788121    0.2955801061    4.6937603843
O        1.5887129124   -1.9344688733    4.7856508135
H        1.5334065116   -1.6844649431    5.7193956807
H        3.1353331338   -2.4599816224    2.7355714319
H        3.3639672102   -2.6510264052    0.2761816557
15   

H        2.0401965513   -1.1866167339   -1.2236655119
C        1.9256939950   -1.1083637690   -0.1459942819
C        2.6489175744   -1.9537232747    0.7011597272
C        2.5017324774   -1.8517468180    2.0907549812
C        1.6270710150   -0.9213588956    2.6441673895
C        0.9177713485   -0.0597306983    1.7893952823
C        1.0602963035   -0.1566433115    0.4005045158
H        0.5019776271    0.5104155124   -0.2502097270
H        0.2537897540    0.6897961161    2.2143288785
C        1.4956788248   -0.7734899047    4.1107672385
O        1.2113706235    0.2520767369    4.6764130352
O        1.7686314980   -1.9065711596    4.7996539149
H        1.6502080743   -1.6594065416    5.7283728019
H        3.0806725600   -2.5125272549    2.7312404973
H        3.3291005246   -2.6893796100    0.2814062127
15   

H        2.0648546001   -1.1740152346   -1.2244974900
C        1.9406966825   -1.1009767656   -0.1475280369
C        2.6308866745   -1.9717980074    0.7007474127
C        2.4713770199   -1.8775965807    2.0896518253
C        1.6211151905   -0.9241232014    2.6435138155
C        0.9377966706   -0.0436201333    1.7849997391
C        1.0931463190   -0.1330593811    0.3971575331
H        0.5565641948    0.5511417052   -0.2540590692
H        0.2815477267    0.7154938462    2.2051743309
C        1.4546560578   -0.7934231178    4.1070663019
O        0.9511230189    0.1524037904    4.6606374231
O        1.9392660575   -1.8416818712    4.8143220950
H        1.7607564437   -1.6121214251    5.7380120539
H        3.0265198055   -2.5652936724    2.7226411226
H        3.2946106133   -2.7230502429    0.2822494108
15   

H        2.1248479690   -1.0886095785   -1.2217068647
C        1.9689205530   -1.0630878305   -0.1466950821
C        3.0551204000   -1.1833803081    0.7247592595
C        2.8547364967   -1.1505359610    2.1112145931
C        1.5758198306   -0.9981885517    2.6410089043
C        0.4868535567   -0.8776672798    1.7576335636
C        0.6811191828   -0.9097912473    0.3722462986
H       -0.1692852994   -0.8155213817   -0.2971323799
H       -0.5184873126   -0.7580302878    2.1557490910
C        1.3386134267   -0.9604966406    4.0999134626
O        0.2563915372   -0.8311031359    4.6169866066
O        2.4596394778   -1.0856136679    4.8494203477
H        2.1436198255   -1.0425286698    5.7637993734
H        3.7224386953   -1.2469562676    2.7588657607
H        4.0585607923   -1.3027876813    0.3261256792
