15   

H        2.1271732860   -1.0610781367   -1.2209000803
C        1.9701878531   -1.0475322842   -0.1458256197
C        3.0517399692   -1.2090827743    0.7250415263
C        2.8496035073   -1.1921327329    2.1114852719
C        1.5750217493   -1.0076583079    2.6408529889
C        0.4892272839   -0.8565677268    1.7591057346
C        0.6850898658   -0.8725865197    0.3736021670
H       -0.1620527918   -0.7512181875   -0.2955417720
H       -0.5139387816   -0.7261747486    2.1592543627
C        1.3363139185   -1.0078945632    4.1002347776
O        0.2532049108   -1.1124393342    4.6203504509
O        2.4619662180   -0.8943654947    4.8444941224
H        2.1478044893   -0.9107680470    5.7603544828
H        3.7100954020   -1.3264408212    2.7621013346
H        4.0522035723   -1.3500582930    0.3259820730
15   

H        2.1246464983   -1.0335715926   -1.2187905761
C        1.9683859882   -1.0309957458   -0.1435298344
C        3.0460701268   -1.2339612649    0.7240858009
C        2.8439185366   -1.2315988433    2.1105081007
C        1.5758451323   -1.0141948099    2.6412102956
C        0.4920429781   -0.8312826623    1.7648197469
C        0.6874084274   -0.8324340741    0.3789792158
H       -0.1568546026   -0.6835957142   -0.2882413804
H       -0.5072725311   -0.6894839543    2.1703961868
C        1.3412519635   -1.0533571554    4.1018528964
O        0.3073808204   -1.3862309155    4.6242305881
O        2.4261638577   -0.7148773014    4.8376097687
H        2.1291158803   -0.7918500733    5.7560165426
H        3.6941524960   -1.4007077240    2.7666546579
H        4.0421656828   -1.3970858362    0.3225685363
15   

H        2.1177414227   -1.0081127838   -1.2164901505
C        1.9639207112   -1.0165926755   -0.1409080076
C        3.0381693572   -1.2616058962    0.7207710214
C        2.8382667866   -1.2736982318    2.1073376471
C        1.5785392440   -1.0245961847    2.6418248852
C        0.4961124005   -0.8062939147    1.7737739965
C        0.6889129965   -0.7926195270    0.3874302621
H       -0.1526165962   -0.6144569798   -0.2760289817
H       -0.4981073003   -0.6504688468    2.1861055320
C        1.3535862452   -1.0994281784    4.1052591957
O        0.4186322885   -1.6454844608    4.6319319426
O        2.3541197301   -0.5472618169    4.8298369477
H        2.0883653651   -0.6795149433    5.7514247983
H        3.6787837957   -1.4750792046    2.7669411865
H        4.0284881383   -1.4467081387    0.3145402806
15   

H        2.1067567690   -0.9837336459   -1.2155326050
C        1.9581476244   -1.0062311105   -0.1394201161
C        3.0296460227   -1.2973337577    0.7117963388
C        2.8360211088   -1.3272371152    2.0988945858
C        1.5870224546   -1.0499659896    2.6422061447
C        0.5058384600   -0.7862532863    1.7866929712
C        0.6923806312   -0.7543627118    0.3996208189
H       -0.1466362899   -0.5407612679   -0.2565015340
H       -0.4808945001   -0.6098490939    2.2079227133
C        1.3771912808   -1.1498826846    4.1105338262
O        0.5893811345   -1.8830960933    4.6473983084
O        2.2370368951   -0.3837895902    4.8190284830
H        2.0119950293   -0.5562154479    5.7446799587
H        3.6699122232   -1.5622601466    2.7556333075
H        4.0120802102   -1.5040914158    0.2969638039
15   

H        2.0896319444   -0.9507927974   -1.2157589555
C        1.9514562369   -0.9933169540   -0.1388606122
C        3.0217363201   -1.3390504961    0.6934668651
C        2.8415329041   -1.3943200049    2.0815640886
C        1.6068408550   -1.0943136274    2.6431597313
C        0.5275823092   -0.7671141027    1.8080135995
C        0.7008673083   -0.7096757526    0.4199566153
H       -0.1361628070   -0.4497480854   -0.2218153443
H       -0.4463811374   -0.5603731278    2.2442946841
C        1.4183718898   -1.2028539988    4.1181781231
O        0.8236936331   -2.0837055336    4.6786978889
O        2.0538545773   -0.2230693364    4.7977096304
H        1.8720075282   -0.4130620193    5.7292741392
H        3.6732227356   -1.6688517064    2.7254189684
H        3.9926296794   -1.5674584171    0.2631016419
15   

H        2.0780869084   -0.9098247083   -1.2148586063
C        1.9525835640   -0.9734705593   -0.1374505036
C        3.0178275838   -1.3854871664    0.6707002860
C        2.8537545594   -1.4680159714    2.0594546257
C        1.6377601395   -1.1415041076    2.6452017903
C        0.5679592121   -0.7298466997    1.8353318177
C        0.7247767697   -0.6452630374    0.4467129394
H       -0.1065117596   -0.3263706855   -0.1756232188
H       -0.3858864321   -0.4777533840    2.2914383838
C        1.4730089987   -1.2405544486    4.1258747246
O        1.1012532053   -2.2147593928    4.7218263265
O        1.7928629732   -0.0917299539    4.7602206598
H        1.6470286059   -0.2803554038    5.6983166432
H        3.6824125258   -1.7907055553    2.6845547846
H        3.9726394057   -1.6427917669    0.2210765780
15   

H        2.0619304184   -0.8790543379   -1.2142892420
C        1.9514689144   -0.9557175848   -0.1360826802
C        3.0114374896   -1.4250727095    0.6471003509
C        2.8664447572   -1.5247666222    2.0368281587
C        1.6710777304   -1.1693990617    2.6487218174
C        0.6126017702   -0.6836246416    1.8642042158
C        0.7500730106   -0.5820602059    0.4747100151
H       -0.0749034161   -0.2118248889   -0.1272510981
H       -0.3175985717   -0.3865742474    2.3416184547
C        1.5383119488   -1.2544280516    4.1318157707
O        1.4097146879   -2.2666544531    4.7662480239
O        1.5123204740   -0.0369488428    4.7172135586
H        1.4070993925   -0.2213671298    5.6616119554
H        3.6920749326   -1.8895802170    2.6426992608
H        3.9478274531   -1.7126196337    0.1774803435
15   

H        2.0487295852   -0.8846239453   -1.2172495464
C        1.9501739830   -0.9588618438   -0.1377211499
C        3.0022854663   -1.4686825401    0.6303329807
C        2.8726607065   -1.5653425127    2.0217252364
C        1.6979208442   -1.1710126480    2.6518016138
C        0.6503156249   -0.6382455210    1.8810795942
C        0.7728992923   -0.5398097727    0.4900032862
H       -0.0447260796   -0.1354399327   -0.0999003334
H       -0.2602932498   -0.3018316766    2.3702887295
C        1.5964290045   -1.2427548451    4.1339544843
O        1.7085418184   -2.2410864406    4.7950790157
O        1.2701674069   -0.0543628497    4.6902058114
H        1.2136701462   -0.2365467324    5.6393122094
H        3.6927051607   -1.9612281005    2.6159944921
H        3.9210369790   -1.7898451812    0.1478208648
15   

H        2.0333496380   -0.9131398541   -1.2227801716
C        1.9445732144   -0.9746811170   -0.1416055996
C        2.9880044672   -1.5117237872    0.6193109446
C        2.8713850995   -1.5919213787    2.0127836059
C        1.7174240984   -1.1528007744    2.6543384806
C        0.6776838857   -0.5944694157    1.8881684022
C        0.7885146336   -0.5127308478    0.4950166823
H       -0.0224166430   -0.0880455031   -0.0898379573
H       -0.2191272120   -0.2252980159    2.3794617064
C        1.6441545613   -1.2154775829    4.1344176728
O        1.9849076384   -2.1537229375    4.8074671940
O        1.0718954544   -0.1194401334    4.6837225110
H        1.0703743354   -0.2973262332    5.6354355471
H        3.6854930522   -2.0097994081    2.6006356230
H        3.8902885718   -1.8671379042    0.1297722766
15   

H        2.0177224229   -0.9530374575   -1.2296520204
C        1.9381297592   -0.9963324826   -0.1468787372
C        2.9725889792   -1.5530641191    0.6115626977
C        2.8683765349   -1.6096800419    2.0070876944
C        1.7361895746   -1.1234446828    2.6558132027
C        0.7023984263   -0.5506992580    1.8890974074
C        0.8022474846   -0.4928397195    0.4939288122
H       -0.0027054716   -0.0551346458   -0.0896010769
H       -0.1835700318   -0.1515324877    2.3766152223
C        1.6838699788   -1.1792633719    4.1339537702
O        2.2303402313   -2.0124054923    4.8120087637
O        0.9059870535   -0.2184978902    4.6851749973
H        0.9566138347   -0.3832065246    5.6380060095
H        3.6777041434   -2.0441226872    2.5899188538
H        3.8587786844   -1.9425881155    0.1185779629
15   

H        1.9967627175   -0.9985480426   -1.2355065981
C        1.9271957973   -1.0218988825   -0.1514282268
C        2.9532646089   -1.5945606151    0.6058808658
C        2.8626774277   -1.6251127168    2.0031200482
C        1.7537231703   -1.0925346466    2.6572694761
C        0.7245642449   -0.5100182734    1.8889144051
C        0.8119459275   -0.4783018965    0.4920857856
H        0.0122853075   -0.0302778489   -0.0909039451
H       -0.1498610529   -0.0810724092    2.3718316474
C        1.7167859944   -1.1395533839    4.1348693982
O        2.4373567390   -1.8226228019    4.8195694351
O        0.7649385474   -0.3496988536    4.6851524908
H        0.8587040824   -0.4877210150    5.6390161771
H        3.6683853822   -2.0734522177    2.5805921019
H        3.8229864455   -2.0170558648    0.1107123048
15   

H        1.9716838020   -1.0475019438   -1.2388640046
C        1.9132133550   -1.0499015539   -0.1538816276
C        2.9316319704   -1.6363232111    0.6029275448
C        2.8559176633   -1.6392787990    2.0013721641
C        1.7711758701   -1.0614683951    2.6583320889
C        0.7462428299   -0.4710202014    1.8892632518
C        0.8193502513   -0.4666599699    0.4912754564
H        0.0247347000   -0.0093775398   -0.0914311987
H       -0.1134980150   -0.0118416949    2.3706635224
C        1.7452535820   -1.0947464362    4.1362315885
O        2.6010901807   -1.5895811598    4.8276185173
O        0.6531705298   -0.5093032636    4.6816360714
H        0.7779855730   -0.6089905393    5.6367401755
H        3.6566943232   -2.0997823768    2.5761518010
H        3.7841533780   -2.0910887016    0.1064278096
15   

H        1.9428078817   -1.0963263257   -1.2386207154
C        1.8962405533   -1.0779961974   -0.1532146967
C        2.9074102141   -1.6776606734    0.6032335772
C        2.8472829559   -1.6530115717    2.0022310415
C        1.7877701653   -1.0308317694    2.6592356365
C        0.7669186889   -0.4332588021    1.8913606068
C        0.8243401814   -0.4558374982    0.4928025300
H        0.0346398349    0.0102385382   -0.0896115607
H       -0.0752449154    0.0541549011    2.3761405082
C        1.7680236527   -1.0466950957    4.1378279895
O        2.7114770644   -1.3258307833    4.8353945750
O        0.5776483023   -0.6891270139    4.6743415826
H        0.7186693265   -0.7415067605    5.6309331664
H        3.6406251121   -2.1237624484    2.5789887182
H        3.7419411261   -2.1639322350    0.1060330724
15   

H        1.9153635654   -1.1385433348   -1.2355605111
C        1.8803410250   -1.1010636191   -0.1502144249
C        2.8824906121   -1.7163505030    0.6063618327
C        2.8371716160   -1.6662333475    2.0052864486
C        1.8045831785   -0.9994947031    2.6597614547
C        0.7894758831   -0.3928882233    1.8941242380
C        0.8314058050   -0.4399958583    0.4956122717
H        0.0476193594    0.0360696867   -0.0866956642
H       -0.0337975541    0.1199013845    2.3852611911
C        1.7840533419   -0.9976994261    4.1397371598
O        2.7616547916   -1.0494982360    4.8426783265
O        0.5419972423   -0.8781606763    4.6641645945
H        0.6825886587   -0.8798258541    5.6221887169
H        3.6205531669   -2.1476984527    2.5866197816
H        3.6978779853   -2.2341903341    0.1092899729
15   

H        1.8897892858   -1.1733129587   -1.2310669971
C        1.8653340174   -1.1182851444   -0.1461794838
C        2.8555602175   -1.7517523997    0.6116653536
C        2.8236111673   -1.6785019759    2.0100256110
C        1.8194261163   -0.9679417384    2.6602269800
C        0.8133147557   -0.3486639485    1.8959984294
C        0.8408637962   -0.4178564751    0.4980392587
H        0.0649293094    0.0702544227   -0.0847948083
H        0.0095107493    0.1890649100    2.3926608611
C        1.7934632355   -0.9448832003    4.1430370010
O        2.7502839752   -0.7666230362    4.8516483970
O        0.5468215712   -1.0710367598    4.6534135605
H        0.6707582052   -1.0215547416    5.6123685770
H        3.5954054410   -2.1730660325    2.5954346870
H        3.6506077048   -2.3015122918    0.1159361275
15   

H        1.8737426071   -1.2017556889   -1.2273508002
C        1.8548464116   -1.1316258716   -0.1432240663
C        2.8265000896   -1.7872610561    0.6201857033
C        2.8015836751   -1.6941567534    2.0176222523
C        1.8244835839   -0.9416422295    2.6591073548
C        0.8359087397   -0.3018937515    1.8917927782
C        0.8555586141   -0.3900061301    0.4947746207
H        0.0933618556    0.1148175756   -0.0919294113
H        0.0524897090    0.2650277517    2.3883438925
C        1.7910699962   -0.8900048866    4.1451899715
O        2.6770102737   -0.4859195492    4.8509845332
O        0.5974251519   -1.2735809652    4.6513708583
H        0.6957310391   -1.1752124647    5.6094133699
H        3.5577815593   -2.2057521565    2.6082059950
H        3.6011910283   -2.3695063490    0.1293577402
15   

H        1.8759987235   -1.2160212715   -1.2250221985
C        1.8528357898   -1.1344723094   -0.1417763213
C        2.7940672412   -1.8190159138    0.6345526451
C        2.7635605273   -1.7112254378    2.0308891714
C        1.8088804705   -0.9196584023    2.6566764989
C        0.8546015652   -0.2450465946    1.8781736175
C        0.8795075460   -0.3474854399    0.4821815733
H        0.1425683876    0.1823007563   -0.1146975929
H        0.0943221730    0.3599534449    2.3653965340
C        1.7699864762   -0.8345619914    4.1451889787
O        2.5399579867   -0.2183024690    4.8314923067
O        0.7111804621   -1.4888628923    4.6709664175
H        0.7855047641   -1.3478886058    5.6257292478
H        3.4961599486   -2.2446396125    2.6313900835
H        3.5494056078   -2.4346846264    0.1544814665
15   

H        1.9106463118   -1.2132798245   -1.2245240865
C        1.8684752818   -1.1259018867   -0.1423056228
C        2.7633788330   -1.8466282701    0.6560121865
C        2.7082077333   -1.7317931572    2.0510529156
C        1.7676188039   -0.9061614372    2.6526979286
C        0.8706337893   -0.1813079443    1.8528038539
C        0.9201929159   -0.2911095932    0.4579934674
H        0.2238365264    0.2723217478   -0.1565536417
H        0.1363158151    0.4686375829    2.3215827724
C        1.7235761227   -0.7864501195    4.1403386036
O        2.3327034541    0.0170083868    4.7929140153
O        0.9060164964   -1.6989692108    4.7090250061
H        0.9623969241   -1.5211182844    5.6587942343
H        3.4062957690   -2.2911158654    2.6686158729
H        3.5024427608   -2.4949347935    0.1939343647
15   

H        1.9514604587   -1.2012012755   -1.2237348744
C        1.8846870008   -1.1143229880   -0.1427148275
C        2.7255953946   -1.8757493977    0.6763719074
C        2.6387926198   -1.7617487095    2.0698606993
C        1.7112838138   -0.9050314319    2.6491887415
C        0.8813281920   -0.1260174907    1.8284338926
C        0.9626051017   -0.2353256583    0.4350657301
H        0.3135534016    0.3652773735   -0.1958549796
H        0.1751481647    0.5660297415    2.2801729875
C        1.6627618949   -0.7599451383    4.1322855712
O        2.0749866191    0.1840223909    4.7509295601
O        1.1552883152   -1.8515502853    4.7458392174
H        1.1937864163   -1.6422096729    5.6901232882
H        3.2972840447   -2.3501697526    2.7037175107
H        3.4482937636   -2.5539632048    0.2316794078
15   

H        1.9884373359   -1.1981651417   -1.2223625561
C        1.8991888967   -1.1130826835   -0.1428234911
C        2.6940574242   -1.9055243286    0.6924245668
C        2.5786775198   -1.7936236373    2.0840394834
C        1.6632464380   -0.9118247996    2.6466060274
C        0.8864793612   -0.0964143187    1.8086653391
C        0.9963996523   -0.2033862715    0.4171702164
H        0.3858353823    0.4242420950   -0.2257647857
H        0.1995360012    0.6233013839    2.2472003907
C        1.5962172013   -0.7529411735    4.1231769655
O        1.7812278409    0.2768966197    4.7161987547
O        1.3883155203   -1.9219362915    4.7700348356
H        1.3890761096   -1.6851390337    5.7087209657
H        3.2045985957   -2.4055527507    2.7287731760
H        3.4041936172   -2.6057701572    0.2618736891
15   

H        2.0149333642   -1.1944329039   -1.2224246188
C        1.9110690243   -1.1123765712   -0.1439587521
C        2.6681621312   -1.9321737412    0.6994124743
C        2.5343907127   -1.8244161650    2.0897965145
C        1.6372851376   -0.9181310888    2.6452160037
C        0.8985797516   -0.0768992299    1.7970065210
C        1.0272184698   -0.1795058543    0.4069590471
H        0.4454689189    0.4694584826   -0.2415044147
H        0.2252776614    0.6605277064    2.2278630672
C        1.5411137294   -0.7595713251    4.1160844188
O        1.4896788121    0.2955801061    4.6937603843
O        1.5886831830   -1.9344697711    4.7856504542
H        1.5338710230   -1.6844313549    5.7194153337
H        3.1353310226   -2.4599842063    2.7355704510
H        3.3639674265   -2.6510253295    0.2761809489
15   

H        2.0401993249   -1.1866140732   -1.2236653707
C        1.9256962832   -1.1083616908   -0.1459941486
C        2.6489187475   -1.9537222558    0.7011597737
C        2.5017324774   -1.8517468180    2.0907549812
C        1.6270710150   -0.9213588956    2.6441673895
C        0.9177722550   -0.0597299063    1.7893954022
C        1.0602983675   -0.1566414469    0.4005046841
H        0.5019799862    0.5104177354   -0.2502094434
H        0.2537899393    0.6897961596    2.2143292457
C        1.4956788248   -0.7734899047    4.1107672385
O        1.2113706235    0.2520767369    4.6764130352
O        1.7686059632   -1.9065779033    4.7996525404
H        1.6504524425   -1.6593385229    5.7283859486
H        3.0806701251   -2.5125290457    2.7312406972
H        3.3291010715   -2.6893790585    0.2814060692
15   

H        2.0648564212   -1.1740138554   -1.2244973977
C        1.9406981426   -1.1009756754   -0.1475279650
C        2.6308873807   -1.9717975339    0.7007474670
C        2.4713770199   -1.8775965807    2.0896518253
C        1.6211151905   -0.9241232014    2.6435138155
C        0.9377974631   -0.0436195132    1.7849997535
C        1.0931478117   -0.1330582371    0.3971575836
H        0.5565660888    0.5511431750   -0.2540590057
H        0.2815483389    0.7154943154    2.2051743482
C        1.4546560578   -0.7934231178    4.1070663019
O        0.9511230189    0.1524037904    4.6606374231
O        1.9392503829   -1.8416898778    4.8143208838
H        1.7608321528   -1.6120830560    5.7380169782
H        3.0265185778   -2.5652943727    2.7226414170
H        3.2946110055   -2.7230500467    0.2822494643
15   

H        2.1248479596   -1.0886096875   -1.2217068690
C        1.9689205486   -1.0630879089   -0.1466950862
C        3.0551203985   -1.1833803431    0.7247592589
C        2.8547364967   -1.1505359610    2.1112145931
C        1.5758198306   -0.9981885517    2.6410089043
C        0.4868535569   -0.8776673178    1.7576335599
C        0.6811191776   -0.9097913273    0.3722462942
H       -0.1692853066   -0.8155215027   -0.2971323889
H       -0.5184873104   -0.7580303369    2.1557490932
C        1.3386134267   -0.9604966406    4.0999134626
O        0.2563915372   -0.8311031359    4.6169866066
O        2.4596394836   -1.0856136040    4.8494203497
H        2.1436198383   -1.0425285154    5.7637993746
H        3.7224386959   -1.2469562439    2.7588657626
H        4.0585607947   -1.3027877100    0.3261256822
