15   

H        2.1271735322   -1.0610759000   -1.2209000618
C        1.9701880346   -1.0475305033   -0.1458256067
C        3.0517400273   -1.2090819044    0.7250415204
C        2.8496035073   -1.1921327329    2.1114852719
C        1.5750217493   -1.0076583079    2.6408529889
C        0.4892273964   -0.8565667408    1.7591057489
C        0.6850900633   -0.8725847053    0.3736021891
H       -0.1620525317   -0.7512158951   -0.2955417457
H       -0.5139387087   -0.7261739705    2.1592543337
C        1.3363139185   -1.0078945632    4.1002347776
O        0.2532049108   -1.1124393342    4.6203504509
O        2.4619677213   -0.8943824101    4.8444945064
H        2.1477968311   -0.9106852442    5.7603534981
H        3.7100954612   -1.3264421762    2.7621009968
H        4.0522035847   -1.3500577617    0.3259820676
15   

H        2.1246472788   -1.0335678075   -1.2187905099
C        1.9683865306   -1.0309927064   -0.1435298024
C        3.0460703683   -1.2339597184    0.7240858394
C        2.8439185366   -1.2315988433    2.1105081007
C        1.5758451323   -1.0141948099    2.6412102956
C        0.4920431668   -0.8312814528    1.7648196922
C        0.6874089095   -0.8324313374    0.3789791955
H       -0.1568539701   -0.6835925323   -0.2882414932
H       -0.5072725763   -0.6894836899    2.1703958293
C        1.3412519635   -1.0533571554    4.1018528964
O        0.3073808204   -1.3862309155    4.6242305881
O        2.4261713411   -0.7149012009    4.8376100954
H        2.1290445552   -0.7916106454    5.7560133631
H        3.6941522685   -1.4007106584    2.7666543438
H        4.0421658691   -1.3970850189    0.3225687271
15   

H        2.1177430757   -1.0081097672   -1.2164901192
C        1.9639218507   -1.0165901578   -0.1409080569
C        3.0381700334   -1.2616044807    0.7207711806
C        2.8382667866   -1.2736982318    2.1073376471
C        1.5785392440   -1.0245961847    2.6418248852
C        0.4961126171   -0.8062937089    1.7737735822
C        0.6889138574   -0.7926178688    0.3874299129
H       -0.1526154909   -0.6144556786   -0.2760297326
H       -0.4981077422   -0.6504706584    2.1861041342
C        1.3535862452   -1.0994281784    4.1052591957
O        0.4186322885   -1.6454844608    4.6319319426
O        2.3541337396   -0.5472854693    4.8298364334
H        2.0881494142   -0.6791089853    5.7514193898
H        3.6787827057   -1.4750822533    2.7669420316
H        4.0284889216   -1.4467075308    0.3145410672
15   

H        2.1067586492   -0.9837346181   -1.2155328170
C        1.9581488516   -1.0062316462   -0.1394204140
C        3.0296469146   -1.2973337028    0.7117965572
C        2.8360211088   -1.3272371152    2.0988945858
C        1.5870224546   -1.0499659896    2.6422061447
C        0.5058383995   -0.7862553382    1.7866920527
C        0.6923813291   -0.7543646179    0.3996199360
H       -0.1466354534   -0.5407650461   -0.2565031975
H       -0.4808957202   -0.6098539898    2.2079199985
C        1.3771912808   -1.1498826846    4.1105338262
O        0.5893811345   -1.8830960933    4.6473983084
O        2.2370575218   -0.3838109473    4.8190275534
H        2.0116206821   -0.5557769028    5.7446683503
H        3.6699107169   -1.5622608848    2.7556355060
H        4.0120815124   -1.5040916570    0.2969651413
15   

H        2.0896327241   -0.9507973931   -1.2157594869
C        1.9514566186   -0.9933204038   -0.1388611501
C        3.0217368116   -1.3390518280    0.6934669535
C        2.8415329041   -1.3943200049    2.0815640886
C        1.6068408550   -1.0943136274    2.6431597313
C        0.5275817490   -0.7671177064    1.8080125413
C        0.7008671132   -0.7096806105    0.4199554889
H       -0.1361631738   -0.4497555893   -0.2218173151
H       -0.4463829192   -0.5603791960    2.2442917932
C        1.4183718898   -1.2028539988    4.1181781231
O        0.8236936331   -2.0837055336    4.6786978889
O        2.0538763873   -0.2230832887    4.7977098806
H        1.8716542415   -0.4128157544    5.7292540724
H        3.6732220098   -1.6688499111    2.7254210582
H        3.9926307234   -1.5674593321    0.2631027533
15   

H        2.0780868304   -0.9098249738   -1.2148586269
C        1.9525834983   -0.9734707824   -0.1374505211
C        3.0178275594   -1.3854872629    0.6707002788
C        2.8537545594   -1.4680159714    2.0594546257
C        1.6377601395   -1.1415041076    2.6452017903
C        0.5679591419   -0.7298469286    1.8353317940
C        0.7247766788   -0.6452633410    0.4467129092
H       -0.1065118851   -0.3263711099   -0.1756232682
H       -0.3858865433   -0.4777537199    2.2914383239
C        1.4730089987   -1.2405544486    4.1258747246
O        1.1012532053   -2.2147593928    4.7218263265
O        1.7928660577   -0.0917309640    4.7602209316
H        1.6470275628   -0.2803550612    5.6983165439
H        3.6824125450   -1.7907054324    2.6845548261
H        3.9726393937   -1.6427918359    0.2210765809
15   

H        2.0619300478   -0.8790493564   -1.2142884093
C        1.9514689105   -0.9557137307   -0.1360818919
C        3.0114372556   -1.4250709269    0.6471003831
C        2.8664447572   -1.5247666222    2.0368281587
C        1.6710777304   -1.1693990617    2.6487218174
C        0.6126023984   -0.6836219694    1.8642054597
C        0.7500734421   -0.5820558087    0.4747114238
H       -0.0749029302   -0.2118187475   -0.1272486924
H       -0.3175967564   -0.3865709857    2.3416221246
C        1.5383119488   -1.2544280516    4.1318157707
O        1.4097146879   -2.2666544531    4.7662480239
O        1.5122996724   -0.0369475624    4.7172105480
H        1.4075106041   -0.2213766437    5.6616548192
H        3.6920747443   -1.8895829170    2.6426976935
H        3.9478265579   -1.7126184489    0.1774794242
15   

H        2.0487281926   -0.8846211096   -1.2172488982
C        1.9501732452   -0.9588596089   -0.1377204846
C        3.0022849782   -1.4686811864    0.6303329459
C        2.8726607065   -1.5653425127    2.0217252364
C        1.6979208442   -1.1710126480    2.6518016138
C        0.6503152002   -0.6382454541    1.8810806498
C        0.7728984903   -0.5398083334    0.4900044825
H       -0.0447276445   -0.1354386243   -0.0998981743
H       -0.2602933733   -0.3018336054    2.3702924174
C        1.5964290045   -1.2427548451    4.1339544843
O        1.7085418184   -2.2410864406    4.7950790157
O        1.2701412702   -0.0543674809    4.6902016152
H        1.2142134689   -0.2364185465    5.6393671110
H        3.6927049577   -1.9612305588    2.6159929453
H        3.9210358199   -1.7898441988    0.1478198033
15   

H        2.0333481990   -0.9131399927   -1.2227800255
C        1.9445723156   -0.9746811912   -0.1416054050
C        2.9880041270   -1.5117233155    0.6193108892
C        2.8713850995   -1.5919213787    2.0127836059
C        1.7174240984   -1.1528007744    2.6543384806
C        0.6776825050   -0.5944718476    1.8881686579
C        0.7885130342   -0.5127327603    0.4950169980
H       -0.0224195452   -0.0880493626   -0.0898372559
H       -0.2191297917   -0.2253043057    2.3794632186
C        1.6441545613   -1.2154775829    4.1344176728
O        1.9849076384   -2.1537229375    4.8074671940
O        1.0718738515   -0.1194493259    4.6837194199
H        1.0708168076   -0.2971106861    5.6354749552
H        3.6854929473   -2.0098007038    2.6006347313
H        3.8902879250   -1.8671374453    0.1297716597
15   

H        2.0177214491   -0.9530387887   -1.2296521181
C        1.9381291102   -0.9963334415   -0.1468787947
C        2.9725888413   -1.5530641528    0.6115626619
C        2.8683765349   -1.6096800419    2.0070876944
C        1.7361895746   -1.1234446828    2.6558132027
C        0.7023970711   -0.5507018721    1.8890972467
C        0.8022460624   -0.4928423160    0.4939286731
H       -0.0027080730   -0.0551393249   -0.0896011525
H       -0.1835729863   -0.1515385093    2.3766152116
C        1.6838699788   -1.1792633719    4.1339537702
O        2.2303402313   -2.0124054923    4.8120087637
O        0.9059720417   -0.2185087797    4.6851733491
H        0.9568741693   -0.3830049970    5.6380263284
H        3.6777040826   -2.0441231888    2.5899185147
H        3.8587784954   -1.9425880670    0.1185777644
15   

H        1.9967623770   -0.9985488577   -1.2355066785
C        1.9271955669   -1.0218994550   -0.1514282951
C        2.9532646112   -1.5945606800    0.6058808606
C        2.8626774277   -1.6251127168    2.0031200482
C        1.7537231703   -1.0925346466    2.6572694761
C        0.7245635707   -0.5100195926    1.8889142506
C        0.8119452703   -0.4783032673    0.4920856376
H        0.0122840576   -0.0302803194   -0.0909041272
H       -0.1498626597   -0.0810753973    2.3718313457
C        1.7167859944   -1.1395533839    4.1348693982
O        2.4373567390   -1.8226228019    4.8195694351
O        0.7649309269   -0.3497075240    4.6851518845
H        0.8588017880   -0.4876073061    5.6390228963
H        3.6683853218   -2.0734524035    2.5805920309
H        3.8229864733   -2.0170558827    0.1107123028
15   

H        1.9716837962   -1.0475018522   -1.2388639927
C        1.9132133498   -1.0499014885   -0.1538816153
C        2.9316319641   -1.6363231766    0.6029275408
C        2.8559176633   -1.6392787990    2.0013721641
C        1.7711758701   -1.0614683951    2.6583320889
C        0.7462428277   -0.4710201767    1.8892632716
C        0.8193502491   -0.4666599115    0.4912754800
H        0.0247347006   -0.0093774523   -0.0914311571
H       -0.1134980144   -0.0118416671    2.3706635467
C        1.7452535820   -1.0947464362    4.1362315885
O        2.6010901807   -1.5895811598    4.8276185173
O        0.6531705534   -0.5093032223    4.6816360790
H        0.7779856559   -0.6089903893    5.6367401871
H        3.6566943179   -2.0997823924    2.5761517959
H        3.7841533608   -2.0910886669    0.1064277840
15   

H        1.9428082963   -1.0963256827   -1.2386207431
C        1.8962408623   -1.0779957501   -0.1532147258
C        2.9074102468   -1.6776606600    0.6032335732
C        2.8472829559   -1.6530115717    2.0022310415
C        1.7877701653   -1.0308317694    2.6592356365
C        0.7669194494   -0.4332575110    1.8913605487
C        0.8243409577   -0.4558362426    0.4928024819
H        0.0346412061    0.0102408516   -0.0896115701
H       -0.0752432082    0.0541579121    2.3761404296
C        1.7680236527   -1.0466950957    4.1378279895
O        2.7114770644   -1.3258307833    4.8353945750
O        0.5776515791   -0.6891159480    4.6743416149
H        0.7186251709   -0.7416501532    5.6309317053
H        3.6406252485   -2.1237622676    2.5789886670
H        3.7419411401   -2.1639322445    0.1060330596
15   

H        1.9153641402   -1.1385417739   -1.2355605089
C        1.8803414644   -1.1010625447   -0.1502144107
C        2.8824905286   -1.7163503773    0.6063618038
C        2.8371716160   -1.6662333475    2.0052864486
C        1.8045831785   -0.9994947031    2.6597614547
C        0.7894773576   -0.3928856966    1.8941242485
C        0.8314072261   -0.4399932589    0.4956123069
H        0.0476219193    0.0360744014   -0.0866954353
H       -0.0337940591    0.1199070464    2.3852615727
C        1.7840533419   -0.9976994261    4.1397371598
O        2.7616547916   -1.0494982360    4.8426783265
O        0.5419984891   -0.8781421247    4.6641638895
H        0.6825566933   -0.8801541639    5.6221921635
H        3.6205535701   -2.1476981241    2.5866194606
H        3.6978777688   -2.2341902390    0.1092897638
15   

H        1.8897885714   -1.1733115672   -1.2310667782
C        1.8653335351   -1.1182842948   -0.1461792332
C        2.8555595934   -1.7517523307    0.6116652803
C        2.8236111673   -1.6785019759    2.0100256110
C        1.8194261163   -0.9679417384    2.6602269800
C        0.8133160224   -0.3486615260    1.8959988860
C        0.8408644762   -0.4178541026    0.4980397621
H        0.0649308939    0.0702589188   -0.0847937384
H        0.0095145799    0.1890702716    2.3926628248
C        1.7934632355   -0.9448832003    4.1430370010
O        2.7502839752   -0.7666230362    4.8516483970
O        0.5468179146   -1.0710135971    4.6534115126
H        0.6708110506   -1.0220456640    5.6123855064
H        3.5954065113   -2.1730652235    2.5954338428
H        3.6506069139   -2.3015119404    0.1159354715
15   

H        1.8737394915   -1.2017560932   -1.2273502606
C        1.8548441462   -1.1316264865   -0.1432234986
C        2.8264986998   -1.7872613914    0.6201856203
C        2.8015836751   -1.6941567534    2.0176222523
C        1.8244835839   -0.9416422295    2.6591073548
C        0.8359084483   -0.3018934681    1.8917938269
C        0.8555569821   -0.3900062628    0.4947757490
H        0.0933599226    0.1148181336   -0.0919273016
H        0.0524912019    0.2650287331    2.3883476500
C        1.7910699962   -0.8900048866    4.1451899715
O        2.6770102737   -0.4859195492    4.8509845332
O        0.5974152808   -1.2735563349    4.6513676065
H        0.6959111936   -1.1757429098    5.6094473209
H        3.5577835540   -2.2057506172    2.6082045839
H        3.6011896157   -2.3695059039    0.1293566925
15   

H        1.8759941329   -1.2160237215   -1.2250215827
C        1.8528324024   -1.1344744404   -0.1417757043
C        2.7940655501   -1.8190166809    0.6345525914
C        2.7635605273   -1.7112254378    2.0308891714
C        1.8088804705   -0.9196584023    2.6566764989
C        0.8545995835   -0.2450486152    1.8781747414
C        0.8795039353   -0.3474882497    0.4821827890
H        0.1425632582    0.1822968924   -0.1146954389
H        0.0943202694    0.3599499791    2.3654000428
C        1.7699864762   -0.8345619914    4.1451889787
O        2.5399579867   -0.2183024690    4.8314923067
O        0.7111683901   -1.4888458892    4.6709639134
H        0.7857310923   -1.3482333205    5.6257614459
H        3.4961621927   -2.2446379148    2.6313886540
H        3.5494040836   -2.4346844602    0.1544804812
15   

H        1.9106465010   -1.2132796144   -1.2245240921
C        1.8684754294   -1.1259017156   -0.1423056275
C        2.7633788983   -1.8466281969    0.6560121853
C        2.7082077333   -1.7317931572    2.0510529156
C        1.7676188039   -0.9061614372    2.6526979286
C        0.8706339337   -0.1813077742    1.8528038458
C        0.9201931087   -0.2911093663    0.4579934577
H        0.2238368042    0.2723220717   -0.1565536609
H        0.1363160240    0.4686378439    2.3215827368
C        1.7235761227   -0.7864501195    4.1403386036
O        2.3327034541    0.0170083868    4.7929140153
O        0.9060189737   -1.6989712824    4.7090252450
H        0.9623960598   -1.5211175688    5.6587941501
H        3.4062956800   -2.2911159415    2.6686159084
H        3.5024428083   -2.4949347475    0.1939343734
15   

H        1.9514646942   -1.2011996121   -1.2237352021
C        1.8846900733   -1.1143215540   -0.1427152094
C        2.7255967504   -1.8757491648    0.6763720531
C        2.6387926198   -1.7617487095    2.0698606993
C        1.7112838138   -0.9050314319    2.6491887415
C        0.8813309353   -0.1260150929    1.8284330121
C        0.9626090732   -0.2353229530    0.4350648340
H        0.3135595110    0.3652816307   -0.1958565968
H        0.1751523698    0.5660345618    2.2801704117
C        1.6627618949   -0.7599451383    4.1322855712
O        2.0749866191    0.1840223909    4.7509295601
O        1.1553118401   -1.8515613547    4.7458395642
H        1.1933904891   -1.6420411477    5.6901007553
H        3.2972821066   -2.3501701706    2.7037195289
H        3.4482950344   -2.5539637199    0.2316805580
15   

H        1.9884390336   -1.1981662656   -1.2223627753
C        1.8991899219   -1.1130834605   -0.1428237961
C        2.6940578111   -1.9055251291    0.6924247492
C        2.5786775198   -1.7936236373    2.0840394834
C        1.6632464380   -0.9118247996    2.6466060274
C        0.8864810513   -0.0964131514    1.8086645377
C        0.9964015704   -0.2033858497    0.4171694220
H        0.3858389273    0.4242434065   -0.2257662544
H        0.1995395209    0.6233051196    2.2471979826
C        1.5962172013   -0.7529411735    4.1231769655
O        1.7812278409    0.2768966197    4.7161987547
O        1.3883446082   -1.9219423253    4.7700343945
H        1.3885059676   -1.6850553488    5.7086980606
H        3.2045983755   -2.4055511714    2.7287754490
H        3.4041944491   -2.6057711839    0.2618749740
15   

H        2.0149316325   -1.1944358765   -1.2224247753
C        1.9110674583   -1.1123788524   -0.1439589479
C        2.6681612743   -1.9321750530    0.6994125372
C        2.5343907127   -1.8244161650    2.0897965145
C        1.6372851376   -0.9181310888    2.6452160037
C        0.8985796786   -0.0768995037    1.7970061114
C        1.0272174790   -0.1795074440    0.4069586147
H        0.4454683400    0.4694568936   -0.2415052157
H        0.2252789700    0.6605291032    2.2278618095
C        1.5411137294   -0.7595713251    4.1160844188
O        1.4896788121    0.2955801061    4.6937603843
O        1.5887107170   -1.9344689986    4.7856507193
H        1.5334128794   -1.6844644867    5.7193959392
H        3.1353330063   -2.4599817093    2.7355714577
H        3.3639672927   -2.6510263212    0.2761816524
15   

H        2.0401967056   -1.1866166374   -1.2236655066
C        1.9256941120   -1.1083636916   -0.1459942770
C        2.6489176369   -1.9537232348    0.7011597341
C        2.5017324774   -1.8517468180    2.0907549812
C        1.6270710150   -0.9213588956    2.6441673895
C        0.9177714113   -0.0597306497    1.7893952764
C        1.0602964209   -0.1566432308    0.4005045113
H        0.5019777813    0.5104156214   -0.2502097386
H        0.2537898159    0.6897961625    2.2143288705
C        1.4956788248   -0.7734899047    4.1107672385
O        1.2113706235    0.2520767369    4.6764130352
O        1.7686301383   -1.9065715342    4.7996538281
H        1.6502120571   -1.6594054567    5.7283730050
H        3.0806724770   -2.5125272956    2.7312405279
H        3.3291005832   -2.6893795801    0.2814062277
15   

H        2.0648545927   -1.1740152300   -1.2244974928
C        1.9406966842   -1.1009767580   -0.1475280382
C        2.6308866605   -1.9717980154    0.7007474088
C        2.4713770199   -1.8775965807    2.0896518253
C        1.6211151905   -0.9241232014    2.6435138155
C        0.9377966748   -0.0436201269    1.7849997419
C        1.0931463357   -0.1330593615    0.3971575365
H        0.5565642284    0.5511417402   -0.2540590618
H        0.2815477210    0.7154938435    2.2051743346
C        1.4546560578   -0.7934231178    4.1070663019
O        0.9511230189    0.1524037904    4.6606374231
O        1.9392655498   -1.8416821294    4.8143220551
H        1.7607582550   -1.6121205013    5.7380121684
H        3.0265197882   -2.5652936786    2.7226411306
H        3.2946105644   -2.7230502762    0.2822493947
15   

H        2.1248479559   -1.0886096802   -1.2217068655
C        1.9689205423   -1.0630878982   -0.1466950832
C        3.0551203971   -1.1833803398    0.7247592582
C        2.8547364967   -1.1505359610    2.1112145931
C        1.5758198306   -0.9981885517    2.6410089043
C        0.4868535524   -0.8776673118    1.7576335654
C        0.6811191697   -0.9097913143    0.3722462999
H       -0.1692853208   -0.8155214804   -0.2971323746
H       -0.5184873140   -0.7580303189    2.1557490998
C        1.3386134267   -0.9604966406    4.0999134626
O        0.2563915372   -0.8311031359    4.6169866066
O        2.4596394787   -1.0856136612    4.8494203475
H        2.1436198271   -1.0425286588    5.7637993732
H        3.7224386971   -1.2469562461    2.7588657614
H        4.0585607937   -1.3027877104    0.3261256821
