15   

H        2.1271727864   -1.0610777346   -1.2209014265
C        1.9701894183   -1.0475308224   -0.1458266784
C        3.0517428201   -1.2090826422    0.7250385047
C        2.8496089340   -1.1921315220    2.1114825651
C        1.5750277870   -1.0076546219    2.6408534493
C        0.4892324413   -0.8565624316    1.7591072098
C        0.6850927599   -0.8725824081    0.3736033418
H       -0.1620508753   -0.7512130650   -0.2955391804
H       -0.5139330932   -0.7261675391    2.1592566038
C        1.3363210858   -1.0078906867    4.1002309048
O        0.2532050539   -1.1124340541    4.6203452440
O        2.4619719810   -0.8943648206    4.8444929170
H        2.1478083211   -0.9107676179    5.7603526516
H        3.7101016313   -1.3264408215    2.7620973430
H        4.0522054232   -1.3500601894    0.3259772601
15   

H        2.1246488286   -1.0335613652   -1.2187924762
C        1.9683903622   -1.0309848309   -0.1435314388
C        3.0460752936   -1.2339537079    0.7240822431
C        2.8439259868   -1.2315912278    2.1105048385
C        1.5758537613   -1.0141836917    2.6412106212
C        0.4920513426   -0.8312674492    1.7648207888
C        0.6874145041   -0.8324191597    0.3789799510
H       -0.1568493341   -0.6835784412   -0.2882391053
H       -0.5072635608   -0.6894663632    2.1703979671
C        1.3412581693   -1.0533494998    4.1018494937
O        0.3073782575   -1.3862224383    4.6242210238
O        2.4261686123   -0.7148795614    4.8376130009
H        2.1291164877   -0.7918562574    5.7560181374
H        3.6941601932   -1.4007032977    2.7666502644
H        4.0421696230   -1.3970814417    0.3225632216
15   

H        2.1177432646   -1.0080990583   -1.2164918183
C        1.9639243869   -1.0165786437   -0.1409094126
C        3.0381735299   -1.2615957292    0.7207677090
C        2.8382729610   -1.2736887314    2.1073345668
C        1.5785464729   -1.0245832249    2.6418253198
C        0.4961197405   -0.8062763981    1.7737750673
C        0.6889183749   -0.7926016602    0.3874310685
H       -0.1526118084   -0.6144365436   -0.2760267388
H       -0.4980993344   -0.6504494272    2.1861074426
C        1.3535898644   -1.0994205047    4.1052576715
O        0.4186272776   -1.6454773707    4.6319184925
O        2.3541227476   -0.5472670310    4.8298459364
H        2.0883628279   -0.6795271456    5.7514311958
H        3.6787899591   -1.4750736054    2.7669369164
H        4.0284910305   -1.4467011351    0.3145352933
15   

H        2.1067587174   -0.9837229055   -1.2155330218
C        1.9581502266   -1.0062199916   -0.1394204353
C        3.0296485337   -1.2973250957    0.7117952448
C        2.8360243652   -1.3272288295    2.0988935466
C        1.5870257975   -1.0499551465    2.6422064415
C        0.5058422765   -0.7862397352    1.7866934351
C        0.6923840554   -0.7543490800    0.3996212292
H       -0.1466328135   -0.5407461819   -0.2565007170
H       -0.4808904542   -0.6098345871    2.2079233367
C        1.3771931461   -1.1498765936    4.1105319093
O        0.5893773061   -1.8830917488    4.6473898020
O        2.2370401415   -0.3837913321    4.8190333545
H        2.0119961446   -0.5562228042    5.7446832842
H        3.6699151744   -1.5622546809    2.7556316456
H        4.0120819639   -1.5040849510    0.2969620147
15   

H        2.0896322906   -0.9507859868   -1.2157590419
C        1.9514573466   -0.9933090083   -0.1388605538
C        3.0217376095   -1.3390433440    0.6934663513
C        2.8415350846   -1.3943120820    2.0815637010
C        1.6068433651   -1.0943036303    2.6431602318
C        0.5275847904   -0.7671032840    1.8080144296
C        0.7008691157   -0.7096659545    0.4199573138
H       -0.1361611842   -0.4497381297   -0.2218143406
H       -0.4463784360   -0.5603617641    2.2442957721
C        1.4183744819   -1.2028470139    4.1181755102
O        0.8236908824   -2.0837035743    4.6786892923
O        2.0538589659   -0.2230683136    4.7977139934
H        1.8720106144   -0.4130664324    5.7292771659
H        3.6732248768   -1.6688452218    2.7254180294
H        3.9926303103   -1.5674529514    0.2631005357
15   

H        2.0780869306   -0.9098245315   -1.2148585839
C        1.9525835795   -0.9734704466   -0.1374504865
C        3.0178275916   -1.3854871114    0.6707002892
C        2.8537545594   -1.4680159714    2.0594546257
C        1.6377601395   -1.1415041076    2.6452017903
C        0.5679592168   -0.7298466679    1.8353318301
C        0.7247767826   -0.6452629441    0.4467129583
H       -0.1065117400   -0.3263705512   -0.1756231913
H       -0.3858864238   -0.4777533651    2.2914384087
C        1.4730089987   -1.2405544486    4.1258747246
O        1.1012532053   -2.2147593928    4.7218263265
O        1.7928630282   -0.0917299723    4.7602206650
H        1.6470287302   -0.2803554459    5.6983166523
H        3.6824125183   -1.7907055814    2.6845547809
H        3.9726394122   -1.6427917043    0.2210765744
15   

H        2.0619304135   -0.8790544611   -1.2142892518
C        1.9514689099   -0.9557176669   -0.1360826887
C        3.0114374951   -1.4250727476    0.6471003530
C        2.8664447572   -1.5247666222    2.0368281587
C        1.6710777304   -1.1693990617    2.6487218174
C        0.6126017618   -0.6836246781    1.8642042037
C        0.7500729982   -0.5820602865    0.4747099971
H       -0.0749034373   -0.2118250119   -0.1272511307
H       -0.3175985860   -0.3865742941    2.3416184357
C        1.5383119488   -1.2544280516    4.1318157707
O        1.4097146879   -2.2666544531    4.7662480239
O        1.5123206258   -0.0369488559    4.7172135882
H        1.4070988083   -0.2213671442    5.6616119035
H        3.6920749403   -1.8895801893    2.6426992673
H        3.9478274665   -1.7126196768    0.1774803655
15   

H        2.0487294628   -0.8846241310   -1.2172495560
C        1.9501739048   -0.9588619654   -0.1377211521
C        3.0022854183   -1.4686826147    0.6303329713
C        2.8726607065   -1.5653425127    2.0217252364
C        1.6979208442   -1.1710126480    2.6518016138
C        0.6503156013   -0.6382455580    1.8810796062
C        0.7728992325   -0.5398098612    0.4900032958
H       -0.0447261598   -0.1354400460   -0.0999003117
H       -0.2602932637   -0.3018317052    2.3702887543
C        1.5964290045   -1.2427548451    4.1339544843
O        1.7085418184   -2.2410864406    4.7950790157
O        1.2701674929   -0.0543628317    4.6902058239
H        1.2136691885   -0.2365469527    5.6393121141
H        3.6927051773   -1.9612280659    2.6159944925
H        3.9210369136   -1.7898452783    0.1478208404
15   

H        2.0333496463   -0.9131398909   -1.2227801830
C        1.9445732233   -0.9746811515   -0.1416056105
C        2.9880044782   -1.5117238009    0.6193109431
C        2.8713850995   -1.5919213787    2.0127836059
C        1.7174240984   -1.1528007744    2.6543384806
C        0.6776838781   -0.5944694472    1.8881683894
C        0.7885146317   -0.5127309017    0.4950166647
H       -0.0224166427   -0.0880455869   -0.0898380004
H       -0.2191272257   -0.2252980586    2.3794616891
C        1.6441545613   -1.2154775829    4.1344176728
O        1.9849076384   -2.1537229375    4.8074671940
O        1.0718955778   -0.1194400771    4.6837225259
H        1.0703736366   -0.2973265742    5.6354354873
H        3.6854930527   -2.0097993956    2.6006356315
H        3.8902885875   -1.8671379168    0.1297722785
15   

H        2.0177221583   -0.9530378643   -1.2296520457
C        1.9381295745   -0.9963327648   -0.1468787514
C        2.9725888832   -1.5530642592    0.6115626785
C        2.8683765349   -1.6096800419    2.0070876944
C        1.7361895746   -1.1234446828    2.6558132027
C        0.7023983451   -0.5506993903    1.8890974183
C        0.8022473101   -0.4928399920    0.4939288157
H       -0.0027057206   -0.0551350356   -0.0896010609
H       -0.1835701210   -0.1515326464    2.3766152421
C        1.6838699788   -1.1792633719    4.1339537702
O        2.2303402313   -2.0124054923    4.8120087637
O        0.9059871056   -0.2184978479    4.6851750041
H        0.9566133702   -0.3832068651    5.6380059784
H        3.6777041912   -2.0441225938    2.5899188569
H        3.8587785716   -1.9425882698    0.1185779225
15   

H        1.9967626260   -0.9985482585   -1.2355066025
C        1.9271957319   -1.0218990287   -0.1514282293
C        2.9532645766   -1.5945606902    0.6058808657
C        2.8626774277   -1.6251127168    2.0031200482
C        1.7537231703   -1.0925346466    2.6572694761
C        0.7245642164   -0.5100183319    1.8889144015
C        0.8119458665   -0.4783020307    0.4920857803
H        0.0122852172   -0.0302780427   -0.0909039551
H       -0.1498610866   -0.0810724715    2.3718316383
C        1.7167859944   -1.1395533839    4.1348693982
O        2.4373567390   -1.8226228019    4.8195694351
O        0.7649385648   -0.3496988250    4.6851524829
H        0.8587038917   -0.4877212013    5.6390161577
H        3.6683854081   -2.0734521755    2.5805920985
H        3.8229864106   -2.0170559482    0.1107123063
15   

H        1.9716838725   -1.0475018222   -1.2388639999
C        1.9132134051   -1.0499014693   -0.1538816236
C        2.9316319986   -1.6363231648    0.6029275465
C        2.8559176633   -1.6392787990    2.0013721641
C        1.7711758701   -1.0614683951    2.6583320889
C        0.7462428544   -0.4710201549    1.8892632528
C        0.8193503008   -0.4666598874    0.4912754584
H        0.0247347712   -0.0093774215   -0.0914311982
H       -0.1134979846   -0.0118416317    2.3706635167
C        1.7452535820   -1.0947464362    4.1362315885
O        2.6010901807   -1.5895811598    4.8276185173
O        0.6531705259   -0.5093032663    4.6816360699
H        0.7779855592   -0.6089905436    5.6367401758
H        3.6566943098   -2.0997824025    2.5761517991
H        3.7841534122   -2.0910886458    0.1064278114
15   

H        1.9428078471   -1.0963263818   -1.2386207145
C        1.8962405358   -1.0779962304   -0.1532146952
C        2.9074102148   -1.6776606791    0.6032335774
C        2.8472829559   -1.6530115717    2.0022310415
C        1.7877701653   -1.0308317694    2.6592356365
C        0.7669186938   -0.4332587902    1.8913606109
C        0.8243401714   -0.4558375172    0.4928025339
H        0.0346398185    0.0102385065   -0.0896115585
H       -0.0752448941    0.0541549411    2.3761405190
C        1.7680236527   -1.0466950957    4.1378279895
O        2.7114770644   -1.3258307833    4.8353945750
O        0.5776482848   -0.6891270709    4.6743415882
H        0.7186693980   -0.7415065138    5.6309331766
H        3.6406251201   -2.1237624299    2.5789887222
H        3.7419411423   -2.1639322167    0.1060330725
15   

H        1.9153638044   -1.1385428937   -1.2355605104
C        1.8803411895   -1.1010633135   -0.1502144216
C        2.8824906777   -1.7163503668    0.6063618298
C        2.8371716160   -1.6662333475    2.0052864486
C        1.8045831785   -0.9994947031    2.6597614547
C        0.7894759647   -0.3928880817    1.8941242464
C        0.8314059742   -0.4399955505    0.4956122785
H        0.0476196144    0.0360701359   -0.0866956541
H       -0.0337974576    0.1199015450    2.3852612063
C        1.7840533419   -0.9976994261    4.1397371598
O        2.7616547916   -1.0494982360    4.8426783265
O        0.5419972343   -0.8781607560    4.6641646023
H        0.6825886982   -0.8798253355    5.6221887199
H        3.6205531087   -2.1476985484    2.5866197808
H        3.6978780330   -2.2341902125    0.1092899617
15   

H        1.8897892405   -1.1733130016   -1.2310669885
C        1.8653339793   -1.1182851776   -0.1461794756
C        2.8555601973   -1.7517524153    0.6116653549
C        2.8236111673   -1.6785019759    2.0100256110
C        1.8194261163   -0.9679417384    2.6602269800
C        0.8133147284   -0.3486639779    1.8959984386
C        0.8408637515   -0.4178565207    0.4980392681
H        0.0649292471    0.0702543516   -0.0847947990
H        0.0095107074    0.1890648558    2.3926608744
C        1.7934632355   -0.9448832003    4.1430370010
O        2.7502839752   -0.7666230362    4.8516483970
O        0.5468215911   -1.0710369186    4.6534135687
H        0.6707581305   -1.0215540628    5.6123685538
H        3.5954054459   -2.1730660273    2.5954346852
H        3.6506076744   -2.3015123187    0.1159361266
15   

H        1.8737425557   -1.2017557544   -1.2273507949
C        1.8548463731   -1.1316259113   -0.1432240620
C        2.8265000661   -1.7872610807    0.6201857044
C        2.8015836751   -1.6941567534    2.0176222523
C        1.8244835839   -0.9416422295    2.6591073548
C        0.8359087288   -0.3018937620    1.8917927816
C        0.8555585823   -0.3900061580    0.4947746243
H        0.0933618117    0.1148175410   -0.0919294005
H        0.0524897026    0.2650277466    2.3883438961
C        1.7910699962   -0.8900048866    4.1451899715
O        2.6770102737   -0.4859195492    4.8509845332
O        0.5974252105   -1.2735811244    4.6513708696
H        0.6957307830   -1.1752117002    5.6094133178
H        3.5577815679   -2.2057521428    2.6082059963
H        3.6011909958   -2.3695063865    0.1293577417
15   

H        1.8759986402   -1.2160213140   -1.2250221870
C        1.8528357495   -1.1344723196   -0.1417763128
C        2.7940672020   -1.8190159371    0.6345526439
C        2.7635605273   -1.7112254378    2.0308891714
C        1.8088804705   -0.9196584023    2.6566764989
C        0.8546016033   -0.2450465336    1.8781736236
C        0.8795075598   -0.3474853860    0.4821815822
H        0.1425684227    0.1823008456   -0.1146975806
H        0.0943222574    0.3599535610    2.3653965411
C        1.7699864762   -0.8345619914    4.1451889787
O        2.5399579867   -0.2183024690    4.8314923067
O        0.7111805538   -1.4888630262    4.6709664346
H        0.7855044602   -1.3478881383    5.6257292079
H        3.4961599423   -2.2446396228    2.6313900824
H        3.5494055307   -2.4346846847    0.1544814503
15   

H        1.9106462501   -1.2132799671   -1.2245240836
C        1.8684752360   -1.1259019832   -0.1423056234
C        2.7633788249   -1.8466283056    0.6560121924
C        2.7082077333   -1.7317931572    2.0510529156
C        1.7676188039   -0.9061614372    2.6526979286
C        0.8706337554   -0.1813079985    1.8528038415
C        0.9201928536   -0.2911097013    0.4579934570
H        0.2238364287    0.2723215848   -0.1565536632
H        0.1363157691    0.4686375230    2.3215827498
C        1.7235761227   -0.7864501195    4.1403386036
O        2.3327034541    0.0170083868    4.7929140153
O        0.9060165139   -1.6989692244    4.7090250118
H        0.9623969620   -1.5211183138    5.6587942428
H        3.4062957866   -2.2911158363    2.6686158795
H        3.5024427742   -2.4949348126    0.1939343824
15   

H        1.9514567227   -1.2012040296   -1.2237351084
C        1.8846824969   -1.1143268593   -0.1427150192
C        2.7255915453   -1.8757528459    0.6763714366
C        2.6387882206   -1.7617532588    2.0698602660
C        1.7112776663   -0.9050374246    2.6491887030
C        0.8813214364   -0.1260239989    1.8284339665
C        0.9625991833   -0.2353311449    0.4350657699
H        0.3135472687    0.3652717636   -0.1958548392
H        0.1751407626    0.5660225533    2.2801731073
C        1.6627576143   -0.7599503163    4.1322825295
O        2.0749834754    0.1840236460    4.7509227253
O        1.1552887832   -1.8515546756    4.7458415712
H        1.1937899605   -1.6422111160    5.6901248887
H        3.2972806254   -2.3501735200    2.7037167989
H        3.4482911134   -2.5539652029    0.2316786708
15   

H        1.9884305822   -1.1981707326   -1.2223633606
C        1.8991820280   -1.1130892429   -0.1428242280
C        2.6940525230   -1.9055295904    0.6924231390
C        2.5786730363   -1.7936296870    2.0840381168
C        1.6632396550   -0.9118325715    2.6466059170
C        0.8864706530   -0.0964237703    1.8086653027
C        0.9963909247   -0.2033950887    0.4171701242
H        0.3858254623    0.4242325049   -0.2257645008
H        0.1995263963    0.6232909972    2.2472005071
C        1.5962129775   -0.7529458054    4.1231748595
O        1.7812220763    0.2768979128    4.7161909590
O        1.3883180792   -1.9219385522    4.7700391961
H        1.3890819067   -1.6851369006    5.7087242333
H        3.2045962071   -2.4055571906    2.7287713021
H        3.4041902963   -2.6057734478    0.2618716599
15   

H        2.0149229509   -1.1944415346   -1.2224269556
C        1.9110592549   -1.1123870058   -0.1439608917
C        2.6681562676   -1.9321821600    0.6994086033
C        2.5343863698   -1.8244260447    2.0897928548
C        1.6372779206   -0.9181442789    2.6452156359
C        0.8985683873   -0.0769152450    1.7970065759
C        1.0272058770   -0.1795202748    0.4069588758
H        0.4454535302    0.4694428851   -0.2415032635
H        0.2252646433    0.6605097807    2.2278638606
C        1.5411089085   -0.7595789055    4.1160822823
O        1.4896697931    0.2955813614    4.6937461185
O        1.5886891413   -1.9344702164    4.7856599263
H        1.5338798604   -1.6844229445    5.7194226196
H        3.1353302130   -2.4599917378    2.7355658026
H        3.3639639121   -2.6510306002    0.2761755914
15   

H        2.0401932654   -1.1866208703   -1.2236675753
C        1.9256903746   -1.1083704817   -0.1459961937
C        2.6489160540   -1.9537296225    0.7011562240
C        2.5017305012   -1.8517560583    2.0907516065
C        1.6270662862   -0.9213713044    2.6441669162
C        0.9177640267   -0.0597444346    1.7893952690
C        1.0602895984   -0.1566539869    0.4005043696
H        0.5019688228    0.5104043661   -0.2502085621
H        0.2537797760    0.6897797168    2.2143295341
C        1.4956755607   -0.7734985858    4.1107632085
O        1.2113619973    0.2520745689    4.6764041840
O        1.7686098609   -1.9065810249    4.7996547679
H        1.6504572310   -1.6593367216    5.7283870113
H        3.0806710109   -2.5125366175    2.7312364680
H        3.3291007148   -2.6893835319    0.2814012368
15   

H        2.0648564444   -1.1740132059   -1.2244985512
C        1.9406982317   -1.1009772343   -0.1475289627
C        2.6308894347   -1.9717991425    0.7007447289
C        2.4713793375   -1.8776009104    2.0896492677
C        1.6211153547   -0.9241296484    2.6435138879
C        0.9377956871   -0.0436262752    1.7850007422
C        1.0931460304   -0.1330625393    0.3971584253
H        0.5565628125    0.5511388892   -0.2540569219
H        0.2815449823    0.7154858887    2.2051759341
C        1.4546566499   -0.7934309211    4.1070616868
O        0.9511186087    0.1524007142    4.6606327138
O        1.9392528203   -1.8416954532    4.8143184008
H        1.7608337220   -1.6120874813    5.7380140859
H        3.0265225434   -2.5652985900    2.7226375624
H        3.2946145105   -2.7230495217    0.2822451949
15   

H        2.0869134646   -1.1573567244   -1.2238971840
C        1.9531978901   -1.0915836879   -0.1476030303
C        2.6109763123   -1.9883130756    0.6991181667
C        2.4389648236   -1.9040534453    2.0872114912
C        1.6135344168   -0.9298471498    2.6431869150
C        0.9544077834   -0.0303193250    1.7846256716
C        1.1225172296   -0.1098426055    0.3977283304
H        0.6071071867    0.5915444744   -0.2523109484
H        0.3061437195    0.7364525750    2.2033545086
C        1.4158270656   -0.8205743991    4.1043664813
O        0.7150869652    0.0001981621    4.6434598662
O        2.0995468113   -1.7382239652    4.8286323072
H        1.8698877975   -1.5386221321    5.7479960331
H        2.9660070351   -2.6178585440    2.7151962427
H        3.2580459293   -2.7535749286    0.2799109592
