15   
torsion grid (-165,)
H        1.9217586729   -1.0106561003   -1.1895914474
C        1.8854892603   -1.0306542547   -0.1102554998
C        2.7629675821   -1.8311127375    0.6017210047
C        2.7137957088   -1.8565219477    1.9833987242
C        1.7887275645   -1.0844442905    2.6766886745
C        0.9141364223   -0.2854704502    1.9527475951
C        0.9607620261   -0.2578597768    0.5696103768
H        0.2718924511    0.3686457780    0.0214696128
H        0.1881093466    0.3205429873    2.4766258228
C        1.7560384252   -1.1071931574    4.1752216202
H        0.8332529448   -0.6728881111    4.5519923693
H        1.8432478378   -2.1264918864    4.5468639163
H        2.5923372299   -0.5336304847    4.5760511920
H        3.4003269462   -2.4837475155    2.5348349440
H        3.4872844227   -2.4382232967    0.0779662822
15   
torsion grid (-150,)
H        1.9219184429   -1.0071136554   -1.1894752650
C        1.8862913621   -1.0296145066   -0.1101897507
C        2.7392131278   -1.8591464693    0.5971397218
C        2.6902420942   -1.8880191518    1.9795501775
C        1.7908017701   -1.0916124241    2.6769814139
C        0.9404082627   -0.2626049884    1.9560895286
C        0.9861416073   -0.2307218965    0.5737981364
H        0.3162882385    0.4185685913    0.0285567681
H        0.2344824867    0.3629221466    2.4844326947
C        1.7551816086   -1.1068091430    4.1755583007
H        0.7535310051   -0.8939811737    4.5424574321
H        2.0758528024   -2.0714830526    4.5621322084
H        2.4275780317   -0.3445784495    4.5713920430
H        3.3582919024   -2.5388058065    2.5262617308
H        3.4439040988   -2.4867052646    0.0706600475
15   
torsion grid (-135,)
H        1.9180038276   -1.0087163478   -1.1894669901
C        1.8851900439   -1.0313098781   -0.1100850091
C        2.7150742630   -1.8857634013    0.5939502855
C        2.6708840236   -1.9146216896    1.9771994992
C        1.7985633826   -1.0919756371    2.6767506005
C        0.9696286782   -0.2371694818    1.9591743150
C        1.0113103115   -0.2058353549    0.5774624252
H        0.3595233115    0.4634756693    0.0345466327
H        0.2853710845    0.4085166962    2.4918068701
C        1.7544286828   -1.1056050271    4.1750925688
H        0.7252459949   -1.1225164142    4.5292022353
H        2.2774277229   -1.9717470469    4.5730057163
H        2.2283838997   -0.2073257969    4.5717212376
H        3.3220148343   -2.5854876441    2.5201376339
H        3.3990767804   -2.5336238899    0.0648471668
15   
torsion grid (-120,)
H        1.9103890441   -1.0133882176   -1.1899593925
C        1.8815073537   -1.0338845582   -0.1104255886
C        2.6893633186   -1.9108717846    0.5911311702
C        2.6510955544   -1.9357413814    1.9749049426
C        1.8071084417   -1.0869592809    2.6773298381
C        0.9996809695   -0.2098617895    1.9615261192
C        1.0350869977   -0.1821221675    0.5798028484
H        0.4011962437    0.5056485784    0.0387535330
H        0.3375777400    0.4564823168    2.4966998515
C        1.7561054662   -1.1046986278    4.1754943628
H        0.7515478850   -1.3512511617    4.5177873233
H        2.4501861782   -1.8363521604    4.5812245898
H        2.0112207085   -0.1238844354    4.5754415413
H        3.2855534208   -2.6242279505    2.5154782093
H        3.3525075192   -2.5785926238    0.0601558393
15   
torsion grid (-105,)
H        1.9052346461   -1.0196691982   -1.1900986589
C        1.8786317308   -1.0368535719   -0.1104409310
C        2.6632642436   -1.9347758707    0.5913864221
C        2.6290370169   -1.9544211138    1.9750760630
C        1.8122763521   -1.0787729112    2.6774173240
C        1.0280618933   -0.1810299384    1.9620493482
C        1.0598790045   -0.1588746893    0.5798805249
H        0.4450118125    0.5459038188    0.0387931615
H        0.3880180887    0.5068855875    2.4967747096
C        1.7569846231   -1.1040323224    4.1752367696
H        0.8288203545   -1.5700608432    4.5073638909
H        2.5891287798   -1.6698271946    4.5869529576
H        1.7844584397   -0.0933552506    4.5783855741
H        3.2457616781   -2.6583696869    2.5162990179
H        3.3055581775   -2.6224520593    0.0602690143
15   
torsion grid (-90,)
H        1.9130564651   -1.0302022352   -1.1900898900
C        1.8818865118   -1.0414890212   -0.1104873745
C        3.0460934828   -1.2159881330    0.6176911867
C        3.0045526327   -1.2278894537    2.0005153923
C        1.8023932763   -1.0659974387    2.6776259340
C        0.6404955484   -0.8922664714    1.9361735515
C        0.6779520061   -0.8798087887    0.5532501655
H       -0.2349631805   -0.7416834388   -0.0080631998
H       -0.3028010486   -0.7646107007    2.4486862708
C        1.7562011225   -1.1020574455    4.1755463752
H        1.5918526419   -2.1245231838    4.5181366928
H        2.6931860725   -0.7511216832    4.6017887696
H        0.9428360478   -0.4868371221    4.5540154502
H        3.9173692033   -1.3637598384    2.5635865349
H        3.9900160594   -1.3414702897    0.1069693285
15   
torsion grid (-75,)
H        1.9160464395   -1.0273655287   -1.1899078093
C        1.8822831089   -1.0397737597   -0.1103869194
C        3.0396721040   -1.2508797682    0.6200764261
C        2.9949954664   -1.2648770481    2.0020262587
C        1.7957015847   -1.0686762446    2.6771367023
C        0.6416744985   -0.8585810259    1.9346300581
C        0.6828694404   -0.8438803594    0.5510977655
H       -0.2245025103   -0.6775159359   -0.0115140170
H       -0.2992012585   -0.7041740880    2.4442538733
C        1.7568542096   -1.1027588459    4.1753042324
H        1.8337605113   -2.1317367089    4.5279544911
H        2.5913060767   -0.5439371111    4.5948649264
H        0.8271951754   -0.6824480559    4.5510944352
H        3.9012372811   -1.4294512183    2.5681061977
H        3.9802347136   -1.4036495454    0.1106085670
15   
torsion grid (-60,)
H        1.9179374594   -1.0198549842   -1.1901310658
C        1.8825732057   -1.0359849430   -0.1107192738
C        3.0323893953   -1.2856481837    0.6200158099
C        2.9850243012   -1.3058607643    2.0015290775
C        1.7916121855   -1.0771284029    2.6774933797
C        0.6463771619   -0.8284469887    1.9340170182
C        0.6889942186   -0.8071853817    0.5502795593
H       -0.2126831247   -0.6117432245   -0.0121910406
H       -0.2903523587   -0.6485685944    2.4427958193
C        1.7572744216   -1.1041742599    4.1760730097
H        2.0716330843   -2.0800639782    4.5447219016
H        2.4396895071   -0.3597335126    4.5850871990
H        0.7565240308   -0.8989455349    4.5474843061
H        3.8848159162   -1.5010149357    2.5681323702
H        3.9683174370   -1.4653515554    0.1107571175
15   
torsion grid (-45,)
H        1.9192987117   -1.0107844176   -1.1896693759
C        1.8840182795   -1.0316302608   -0.1103196138
C        3.0254323096   -1.3207195165    0.6186141841
C        2.9777503742   -1.3483976962    2.0002483088
C        1.7914473359   -1.0881704891    2.6767368195
C        0.6536107476   -0.7990088456    1.9358621475
C        0.6979283292   -0.7705583311    0.5526159318
H       -0.1973393944   -0.5450949966   -0.0087900513
H       -0.2771447237   -0.5944092500    2.4463901674
C        1.7562304034   -1.1055164899    4.1752871887
H        2.2881086909   -1.9726470455    4.5625416598
H        2.2415615606   -0.2129432948    4.5713218234
H        0.7327327729   -1.1280830971    4.5412899051
H        3.8712523555   -1.5751291542    2.5651086553
H        3.9552390883   -1.5266123591    0.1081074372
15   
torsion grid (-30,)
H        1.9192668527   -1.0060663501   -1.1894636935
C        1.8854460481   -1.0292990437   -0.1101129741
C        3.0180056650   -1.3558625837    0.6156644038
C        2.9723222715   -1.3872229089    1.9980438704
C        1.7961931968   -1.0937092384    2.6766444379
C        0.6656304712   -0.7669292221    1.9383903815
C        0.7082989478   -0.7347507413    0.5559441194
H       -0.1804384280   -0.4802567593   -0.0034299681
H       -0.2571800594   -0.5372241369    2.4526645997
C        1.7542355062   -1.1060466552    4.1750050801
H        2.4677070633   -1.8214081759    4.5778121232
H        2.0112855827   -0.1192951643    4.5622254408
H        0.7590159166   -1.3588820996    4.5338096417
H        3.8599935839   -1.6443693914    2.5590635797
H        3.9403442229   -1.5883827733    0.1030841454
15   
torsion grid (-15,)
H        1.9161505521   -1.0092135783   -1.1895625745
C        1.8847933296   -1.0313766855   -0.1101275085
C        3.0089684775   -1.3913459608    0.6118398625
C        2.9667880007   -1.4206890532    1.9950878498
C        1.8031787646   -1.0914130472    2.6769198466
C        0.6799493473   -0.7308165173    1.9414773319
C        0.7187764212   -0.7004302865    0.5596001929
H       -0.1634599349   -0.4192459209    0.0026896317
H       -0.2327711852   -0.4722175641    2.4600283267
C        1.7534934610   -1.1053033586    4.1750707273
H        2.6063037946   -1.6378312164    4.5888219656
H        1.7680622777   -0.0849509218    4.5593907975
H        0.8384314249   -1.5794328213    4.5252607712
H        3.8491144228   -1.7035197474    2.5521508251
H        3.9223476873   -1.6519185649    0.0966971418
15   
torsion grid (0,)
H        1.9132124319   -1.0167085330   -1.1897286524
C        1.8837812272   -1.0352726452   -0.1101745553
C        2.9983425947   -1.4266220715    0.6098967655
C        2.9592515837   -1.4499249914    1.9936653585
C        1.8084643418   -1.0829391222    2.6771477886
C        0.6941841707   -0.6911861751    1.9432635314
C        0.7298960472   -0.6667971224    0.5615087268
H       -0.1445637828   -0.3600188926    0.0058345073
H       -0.2082351290   -0.4026371327    2.4640534010
C        1.7531992557   -1.1040544098    4.1750520473
H        2.7002019016   -1.4320617754    4.5962123508
H        1.5267204980   -0.1104181701    4.5603957998
H        0.9686132844   -1.7787087180    4.5159802985
H        3.8347100650   -1.7567582572    2.5488650154
H        3.9023483510   -1.7155972276    0.0933728046
15   
torsion grid (15,)
H        1.9117207319   -1.0248291735   -1.1900064621
C        1.8827985270   -1.0390754541   -0.1103679265
C        2.9858158614   -1.4616129876    0.6103147982
C        2.9476505818   -1.4778490344    1.9939080538
C        1.8091478519   -1.0730658023    2.6774581058
C        0.7067874066   -0.6508585279    1.9432142962
C        0.7415731261   -0.6334675248    0.5610082948
H       -0.1234375540   -0.3012168227    0.0052010721
H       -0.1861573408   -0.3327087408    2.4630698482
C        1.7537141570   -1.1026914153    4.1751873626
H        2.7485524213   -1.2101232751    4.6004103803
H        1.3018160187   -0.1910186426    4.5615921097
H        1.1459304120   -1.9437242719    4.5104734615
H        3.8137634509   -1.8087728484    2.5499176898
H        3.8804511893   -1.7786907227    0.0939641033
15   
torsion grid (30,)
H        1.9122500693   -1.0287323222   -1.1900971141
C        1.8820029715   -1.0408098902   -0.1104645281
C        2.9718413361   -1.4954003192    0.6117645323
C        2.9314262923   -1.5077967332    1.9946268488
C        1.8048565179   -1.0668640005    2.6775441875
C        0.7168920350   -0.6132001504    1.9423915071
C        0.7539366837   -0.5994458301    0.5594819915
H       -0.1002279928   -0.2418824223    0.0026457666
H       -0.1667211468   -0.2659022467    2.4595299832
C        1.7549830650   -1.1029090486    4.1753165772
H        2.7487190869   -0.9805852717    4.6002460710
H        1.1061547804   -0.3200264492    4.5615592709
H        1.3609995699   -2.0630083337    4.5111164621
H        3.7862694302   -1.8627723129    2.5531937559
H        3.8567441426   -1.8403699133    0.0964898758
15   
torsion grid (45,)
H        1.9157974299   -1.0264190475   -1.1899423487
C        1.8825058370   -1.0391458209   -0.1104062053
C        2.9566283139   -1.5284635486    0.6138348630
C        2.9128603461   -1.5424859939    1.9958119163
C        1.7976651430   -1.0684568008    2.6771947601
C        0.7266872753   -0.5804407972    1.9409595115
C        0.7673134420   -0.5649398719    0.5574156468
H       -0.0745466736   -0.1806065504   -0.0003318138
H       -0.1478360180   -0.2072438842    2.4554909981
C        1.7556974690   -1.1037525904    4.1752593074
H        2.6957019355   -0.7500678365    4.5948961172
H        0.9457497781   -0.4874219596    4.5575705676
H        1.6002790015   -2.1261203906    4.5210601204
H        3.7542137106   -1.9245271116    2.5570452621
H        3.8314098511   -1.8996130399    0.0994864849
15   
torsion grid (60,)
H        1.9206641651   -1.0199190007   -1.1901026605
C        1.8849207105   -1.0356449268   -0.1106844480
C        2.9417479734   -1.5614552017    0.6138818936
C        2.8931205644   -1.5805300689    1.9953609539
C        1.7911754004   -1.0763092557    2.6773599555
C        0.7383588010   -0.5523745475    1.9403892545
C        0.7830542197   -0.5313498083    0.5567052032
H       -0.0456807446   -0.1194978163   -0.0010654003
H       -0.1266230011   -0.1561604399    2.4537784947
C        1.7551626840   -1.1043266218    4.1758693568
H        2.5872332967   -0.5327956955    4.5858678267
H        0.8264625815   -0.6825444485    4.5522329002
H        1.8446518790   -2.1276245223    4.5384935357
H        3.7200373778   -1.9917759288    2.5573464021
H        3.8058409336   -1.9573969614    0.0999119198
15   
torsion grid (75,)
H        1.9231602137   -1.0115459374   -1.1896278271
C        1.8865005685   -1.0318695394   -0.1103064860
C        2.9261128599   -1.5932484005    0.6120308161
C        2.8763600995   -1.6195270795    1.9936414624
C        1.7892404881   -1.0863786185    2.6766856218
C        0.7530298701   -0.5256217894    1.9424932802
C        0.7998268406   -0.4978574637    0.5593305057
H       -0.0159570475   -0.0588825054    0.0031842521
H       -0.0998644991   -0.1068587811    2.4582720302
C        1.7542527211   -1.1055842448    4.1752233919
H        2.4285932593   -0.3474205646    4.5746238655
H        0.7527086212   -0.8996802467    4.5448036704
H        2.0783761360   -2.0725451657    4.5554885309
H        3.6900802736   -2.0594960578    2.5531957234
H        3.7777064365   -2.0131888498    0.0963063502
15   
torsion grid (90,)
H        1.9233631824   -1.0082644877   -1.1893196167
C        1.8876427651   -1.0306018812   -0.1100204739
C        2.9104018708   -1.6253412542    0.6084588704
C        2.8620478912   -1.6549953385    1.9908394208
C        1.7929566145   -1.0924283094    2.6766327210
C        0.7721856192   -0.4979102556    1.9453875490
C        0.8175566164   -0.4665991838    0.5630674085
H        0.0146060456   -0.0017342227    0.0092548903
H       -0.0668529796   -0.0568590099    2.4652810448
C        1.7528446584   -1.1050044690    4.1750492576
H        2.2306727687   -0.2063091161    4.5672616459
H        0.7270142493   -1.1246750096    4.5361123243
H        2.2838738495   -1.9677692917    4.5708194487
H        3.6634014129   -2.1221918801    2.5461563989
H        3.7484122767   -2.0690215347    0.0903642983
15   
torsion grid (105,)
H        1.9197610414   -1.0098845859   -1.1894305512
C        1.8867513170   -1.0319069272   -0.1100441308
C        2.8936065695   -1.6564146724    0.6045900802
C        2.8491540894   -1.6850909076    1.9878238334
C        1.8000639566   -1.0919422497    2.6768361118
C        0.7940379692   -0.4672293109    1.9485917819
C        0.8353882796   -0.4367093674    0.5668359412
H        0.0449455266    0.0520026302    0.0155441540
H       -0.0291864476   -0.0021373641    2.4728102640
C        1.7524083357   -1.1042767485    4.1750874568
H        2.0097947108   -0.1192263170    4.5654724658
H        0.7519099828   -1.3500935158    4.5262411099
H        2.4555403920   -1.8268935782    4.5819848038
H        3.6390916953   -2.1758841175    2.5391234506
H        3.7168594232   -2.1240182123    0.0838784165
15   
torsion grid (120,)
H        1.9149931305   -1.0170159605   -1.1896523404
C        1.8846400105   -1.0358983290   -0.1101311247
C        2.8755815014   -1.6869563202    0.6026465650
C        2.8355441858   -1.7104762316    1.9863809808
C        1.8070050295   -1.0850268171    2.6770733023
C        0.8164135327   -0.4335532224    1.9504451931
C        0.8533918192   -0.4081561599    0.5687406494
H        0.0758984805    0.1023278057    0.0187562005
H        0.0099193170    0.0576173770    2.4769062040
C        1.7524994413   -1.1028109977    4.1750560975
H        1.7793362057   -0.0867461176    4.5674426352
H        0.8268170877   -1.5654941734    4.5155468217
H        2.5907333874   -1.6570351908    4.5898124475
H        3.6139066850   -2.2213874425    2.5358693326
H        3.6834470272   -2.1790934641    0.0804522233
15   
torsion grid (135,)
H        1.9109421213   -1.0240550419   -1.1900093114
C        1.8821630514   -1.0390990326   -0.1103940428
C        2.8557243785   -1.7164989941    0.6021571283
C        2.8182918424   -1.7336872415    1.9858216973
C        1.8106020516   -1.0757233951    2.6777110777
C        0.8378317283   -0.3988243705    1.9509124698
C        0.8715994794   -0.3792711475    0.5687652692
H        0.1082838360    0.1525857294    0.0191487081
H        0.0476141732    0.1183820580    2.4770568726
C        1.7536409128   -1.1022275580    4.1755019793
H        1.5506673195   -0.1083137790    4.5703225884
H        0.9521948582   -1.7626415468    4.5079787290
H        2.6894405827   -1.4628616290    4.5951810283
H        3.5831068150   -2.2643916074    2.5355081272
H        3.6480236911   -2.2330776881    0.0796828667
15   
torsion grid (150,)
H        1.9097282957   -1.0276441349   -1.1903430496
C        1.8808349776   -1.0404459337   -0.1106814669
C        2.8341199570   -1.7455396105    0.6034414980
C        2.7961674813   -1.7585932742    1.9864454754
C        1.8081555832   -1.0690454348    2.6778493269
C        0.8566557039   -0.3650246239    1.9503983849
C        0.8913436262   -0.3496242391    0.5674918605
H        0.1444914014    0.2043711550    0.0171861846
H        0.0820758860    0.1776725274    2.4741169457
C        1.7551135272   -1.1026625280    4.1756205575
H        1.3314562709   -0.1817672193    4.5700538029
H        1.1269848466   -1.9306215252    4.5067811753
H        2.7478042716   -1.2444933385    4.5969080370
H        3.5444866624   -2.3101092046    2.5383436849
H        3.6107083503   -2.2861778600    0.0817327706
15   
torsion grid (165,)
H        1.9122319946   -1.0250572557   -1.1899750306
C        1.8806917935   -1.0378190385   -0.1103952985
C        2.8106062403   -1.7738858691    0.6045246455
C        2.7697681802   -1.7879526696    1.9866140646
C        1.8014236516   -1.0684437401    2.6773568715
C        0.8741166413   -0.3344856741    1.9502100218
C        0.9120681027   -0.3180922394    0.5666242719
H        0.1835170427    0.2595871093    0.0161332095
H        0.1147955716    0.2311245230    2.4720439128
C        1.7568009200   -1.1047977592    4.1753208013
H        1.1323156649   -0.3053780523    4.5665506224
H        1.3456555890   -2.0563300577    4.5139925839
H        2.7571377869   -1.0071653905    4.5928762629
H        3.4983678126   -2.3633514275    2.5405683643
H        3.5706298495   -2.3376577030    0.0828998846
15   
torsion grid (180,)
H        1.9179905871   -1.0184740571   -1.1895917559
C        1.8829471876   -1.0340364797   -0.1101600362
C        2.7868912971   -1.8026340993    0.6043258901
C        2.7409164539   -1.8216289919    1.9858520730
C        1.7929999789   -1.0748539892    2.6768419334
C        0.8922533804   -0.3084592835    1.9506067980
C        0.9355104566   -0.2871356743    0.5669223719
H        0.2268109960    0.3150729945    0.0168083188
H        0.1486471451    0.2780041829    2.4720696951
C        1.7568125308   -1.1064331221    4.1751589790
H        0.9620657177   -0.4723887962    4.5600564042
H        1.5927019707   -2.1235977667    4.5292592141
H        2.7057754836   -0.7617111814    4.5846814126
H        3.4480909910   -2.4228555202    2.5401686059
H        3.5297126647   -2.3885734599    0.0823452838
