15   

H        2.1271734329   -1.0610762072   -1.2209000639
C        1.9701879688   -1.0475306992   -0.1458256040
C        3.0517399820   -1.2090820380    0.7250415112
C        2.8496035073   -1.1921327329    2.1114852719
C        1.5750217493   -1.0076583079    2.6408529889
C        0.4892273754   -0.8565667863    1.7591057698
C        0.6850900120   -0.8725848369    0.3736022078
H       -0.1620525938   -0.7512160697   -0.2955417179
H       -0.5139387199   -0.7261740043    2.1592543799
C        1.3363139185   -1.0078945632    4.1002347776
O        0.2532049108   -1.1124393342    4.6203504509
O        2.4619677512   -0.8943827275    4.8444945074
H        2.1477967310   -0.9106841475    5.7603534771
H        3.7100954754   -1.3264421482    2.7621009839
H        4.0522035190   -1.3500579743    0.3259820350
15   

H        2.1246472082   -1.0335679161   -1.2187905135
C        1.9683864857   -1.0309927807   -0.1435298012
C        3.0460703436   -1.2339597448    0.7240858307
C        2.8439185366   -1.2315988433    2.1105081007
C        1.5758451323   -1.0141948099    2.6412102956
C        0.4920431485   -0.8312815060    1.7648197041
C        0.6874088662   -0.8324314288    0.3789792076
H       -0.1568540342   -0.6835926782   -0.2882414663
H       -0.5072725982   -0.6894837789    2.1703958482
C        1.3412519635   -1.0533571554    4.1018528964
O        0.3073808204   -1.3862309155    4.6242305881
O        2.4261715543   -0.7149019126    4.8376101096
H        2.1290438766   -0.7916084290    5.7560133322
H        3.6941522886   -1.4007106493    2.7666543215
H        4.0421658404   -1.3970850379    0.3225687024
15   

H        2.1177430520   -1.0081099376   -1.2164901264
C        1.9639218342   -1.0165902662   -0.1409080621
C        3.0381700232   -1.2616045343    0.7207711795
C        2.8382667866   -1.2736982318    2.1073376471
C        1.5785392440   -1.0245961847    2.6418248852
C        0.4961126088   -0.8062937619    1.7737735739
C        0.6889138403   -0.7926179781    0.3874299044
H       -0.1526155208   -0.6144558603   -0.2760297447
H       -0.4981077633   -0.6504707377    2.1861041053
C        1.3535862452   -1.0994281784    4.1052591957
O        0.4186322885   -1.6454844608    4.6319319426
O        2.3541343572   -0.5472865888    4.8298364492
H        2.0881478358   -0.6791060200    5.7514193562
H        3.6787827226   -1.4750822576    2.7669420127
H        4.0284889130   -1.4467075983    0.3145410750
15   

H        2.1067587488   -0.9837343498   -1.2155328102
C        1.9581489198   -1.0062314542   -0.1394204124
C        3.0296469505   -1.2973336070    0.7117965654
C        2.8360211088   -1.3272371152    2.0988945858
C        1.5870224546   -1.0499659896    2.6422061447
C        0.5058384247   -0.7862552647    1.7866920386
C        0.6923813910   -0.7543644417    0.3996199254
H       -0.1466353635   -0.5407648021   -0.2565032229
H       -0.4808957062   -0.6098539323    2.2079199596
C        1.3771912808   -1.1498826846    4.1105338262
O        0.5893811345   -1.8830960933    4.6473983084
O        2.2370585768   -0.3838121296    4.8190275710
H        2.0116181742   -0.5557739390    5.7446682701
H        3.6699106901   -1.5622609585    2.7556355198
H        4.0120815529   -1.5040915724    0.2969651682
15   

H        2.0896327002   -0.9507975065   -1.2157594941
C        1.9514565984   -0.9933204957   -0.1388611567
C        3.0217368054   -1.3390518590    0.6934669537
C        2.8415329041   -1.3943200049    2.0815640886
C        1.6068408550   -1.0943136274    2.6431597313
C        0.5275817273   -0.7671177959    1.8080125307
C        0.7008670836   -0.7096807383    0.4199554766
H       -0.1361632154   -0.4497557743   -0.2218173353
H       -0.4463829581   -0.5603793312    2.2442917619
C        1.4183718898   -1.2028539988    4.1181781231
O        0.8236936331   -2.0837055336    4.6786978889
O        2.0538775751   -0.2230840782    4.7977099228
H        1.8716522209   -0.4128142876    5.7292539460
H        3.6732220173   -1.6688498680    2.7254210710
H        3.9926307264   -1.5674593471    0.2631027669
15   

H        2.0780868285   -0.9098249223   -1.2148586205
C        1.9525834942   -0.9734707475   -0.1374505171
C        3.0178275641   -1.3854872118    0.6707002810
C        2.8537545594   -1.4680159714    2.0594546257
C        1.6377601395   -1.1415041076    2.6452017903
C        0.5679591339   -0.7298469385    1.8353317976
C        0.7247766639   -0.6452633475    0.4467129127
H       -0.1065119076   -0.3263711418   -0.1756232682
H       -0.3858865518   -0.4777537396    2.2914383305
C        1.4730089987   -1.2405544486    4.1258747246
O        1.1012532053   -2.2147593928    4.7218263265
O        1.7928661922   -0.0917310067    4.7602209470
H        1.6470276954   -0.2803550947    5.6983165614
H        3.6824125464   -1.7907054368    2.6845548220
H        3.9726394110   -1.6427917262    0.2210765780
15   

H        2.0619299809   -0.8790495720   -1.2142884340
C        1.9514688655   -0.9557138669   -0.1360819077
C        3.0114372260   -1.4250710128    0.6471003753
C        2.8664447572   -1.5247666222    2.0368281587
C        1.6710777304   -1.1693990617    2.6487218174
C        0.6126023909   -0.6836219934    1.8642054536
C        0.7500734112   -0.5820558992    0.4747114097
H       -0.0749029704   -0.2118188611   -0.1272487087
H       -0.3175967482   -0.3865709857    2.3416221408
C        1.5383119488   -1.2544280516    4.1318157707
O        1.4097146879   -2.2666544531    4.7662480239
O        1.5122984647   -0.0369475140    4.7172104036
H        1.4075131133   -0.2213766791    5.6616550706
H        3.6920747531   -1.8895829072    2.6426976857
H        3.9478265141   -1.7126185802    0.1774794170
15   

H        2.0487282417   -0.8846210298   -1.2172488945
C        1.9501732830   -0.9588595479   -0.1377204833
C        3.0022849960   -1.4686811655    0.6303329482
C        2.8726607065   -1.5653425127    2.0217252364
C        1.6979208442   -1.1710126480    2.6518016138
C        0.6503152145   -0.6382454228    1.8810806401
C        0.7728985258   -0.5398082660    0.4900044767
H       -0.0447275991   -0.1354385325   -0.0998981778
H       -0.2602933610   -0.3018335740    2.3702924151
C        1.5964290045   -1.2427548451    4.1339544843
O        1.7085418184   -2.2410864406    4.7950790157
O        1.2701397879   -0.0543678020    4.6902014495
H        1.2142170728   -0.2364176937    5.6393674704
H        3.6927049482   -1.9612306013    2.6159929284
H        3.9210358347   -1.7898441942    0.1478198070
15   

H        2.0333481571   -0.9131402055   -1.2227800578
C        1.9445722857   -0.9746813373   -0.1416054319
C        2.9880041228   -1.5117233674    0.6193108870
C        2.8713850995   -1.5919213787    2.0127836059
C        1.7174240984   -1.1528007744    2.6543384806
C        0.6776824622   -0.5944719669    1.8881686179
C        0.7885129816   -0.5127329485    0.4950169523
H       -0.0224196358   -0.0880496491   -0.0898373171
H       -0.2191298775   -0.2253044836    2.3794631451
C        1.6441545613   -1.2154775829    4.1344176728
O        1.9849076384   -2.1537229375    4.8074671940
O        1.0718727316   -0.1194498468    4.6837193103
H        1.0708200153   -0.2971091143    5.6354752405
H        3.6854929595   -2.0098006704    2.6006347372
H        3.8902879296   -1.8671374845    0.1297716694
15   

H        2.0177214792   -0.9530387886   -1.2296521266
C        1.9381291273   -0.9963334450   -0.1468788058
C        2.9725888490   -1.5530641546    0.6115626628
C        2.8683765349   -1.6096800419    2.0070876944
C        1.7361895746   -1.1234446828    2.6558132027
C        0.7023970628   -0.5507018964    1.8890972232
C        0.8022460693   -0.4928423323    0.4939286537
H       -0.0027080716   -0.0551393547   -0.0896011784
H       -0.1835730306   -0.1515385771    2.3766151572
C        1.6838699788   -1.1792633719    4.1339537702
O        2.2303402313   -2.0124054923    4.8120087637
O        0.9059714044   -0.2185092671    4.6851733020
H        0.9568762992   -0.3830033737    5.6380264989
H        3.6777040776   -2.0441231973    2.5899185149
H        3.8587785035   -1.9425880763    0.1185777744
15   

H        1.9967624640   -0.9985487725   -1.2355066755
C        1.9271956210   -1.0218994018   -0.1514282954
C        2.9532646527   -1.5945606296    0.6058808656
C        2.8626774277   -1.6251127168    2.0031200482
C        1.7537231703   -1.0925346466    2.6572694761
C        0.7245635694   -0.5100196071    1.8889142387
C        0.8119452966   -0.4783032630    0.4920856276
H        0.0122840844   -0.0302803317   -0.0909041484
H       -0.1498626863   -0.0810754443    2.3718313157
C        1.7167859944   -1.1395533839    4.1348693982
O        2.4373567390   -1.8226228019    4.8195694351
O        0.7649306501   -0.3497078427    4.6851518677
H        0.8588026074   -0.4876063490    5.6390229563
H        3.6683853093   -2.0734524226    2.5805920334
H        3.8229865320   -2.0170557978    0.1107123083
15   

H        1.9716838087   -1.0475018809   -1.2388639970
C        1.9132133604   -1.0499015069   -0.1538816209
C        2.9316319761   -1.6363231799    0.6029275433
C        2.8559176633   -1.6392787990    2.0013721641
C        1.7711758701   -1.0614683951    2.6583320889
C        0.7462428352   -0.4710201728    1.8892632643
C        0.8193502569   -0.4666599252    0.4912754697
H        0.0247347071   -0.0093774773   -0.0914311731
H       -0.1134980011   -0.0118416509    2.3706635371
C        1.7452535820   -1.0947464362    4.1362315885
O        2.6010901807   -1.5895811598    4.8276185173
O        0.6531705484   -0.5093032305    4.6816360774
H        0.7779856443   -0.6089904076    5.6367401852
H        3.6566943183   -2.0997823882    2.5761517987
H        3.7841533858   -2.0910886570    0.1064277955
15   

H        1.9428082390   -1.0963259275   -1.2386207547
C        1.8962408167   -1.0779959192   -0.1532147382
C        2.9074102352   -1.6776607381    0.6032335785
C        2.8472829559   -1.6530115717    2.0022310415
C        1.7877701653   -1.0308317694    2.6592356365
C        0.7669194191   -0.4332575876    1.8913605216
C        0.8243409014   -0.4558364119    0.4928024505
H        0.0346411226    0.0102406044   -0.0896116283
H       -0.0752432513    0.0541578352    2.3761403795
C        1.7680236527   -1.0466950957    4.1378279895
O        2.7114770644   -1.3258307833    4.8353945750
O        0.5776517072   -0.6891155255    4.6743416206
H        0.7186248047   -0.7416513397    5.6309316955
H        3.6406252754   -2.1237622121    2.5789886752
H        3.7419411465   -2.1639323171    0.1060330889
15   

H        1.9153642092   -1.1385417626   -1.2355605233
C        1.8803415139   -1.1010625336   -0.1502144259
C        2.8824905619   -1.7163503707    0.6063618041
C        2.8371716160   -1.6662333475    2.0052864486
C        1.8045831785   -0.9994947031    2.6597614547
C        0.7894773912   -0.3928856583    1.8941242202
C        0.8314072782   -0.4399932306    0.4956122779
H        0.0476219934    0.0360744456   -0.0866954817
H       -0.0337940116    0.1199071436    2.3852615107
C        1.7840533419   -0.9976994261    4.1397371598
O        2.7616547916   -1.0494982360    4.8426783265
O        0.5419985551   -0.8781413114    4.6641638771
H        0.6825564171   -0.8801567883    5.6221921933
H        3.6205535700   -2.1476981183    2.5866194653
H        3.6978778223   -2.2341902171    0.1092897780
15   

H        1.8897885968   -1.1733117458   -1.2310668028
C        1.8653335529   -1.1182844116   -0.1461792608
C        2.8555595993   -1.7517524083    0.6116652875
C        2.8236111673   -1.6785019759    2.0100256110
C        1.8194261163   -0.9679417384    2.6602269800
C        0.8133160572   -0.3486615086    1.8959988285
C        0.8408645205   -0.4178541556    0.4980397023
H        0.0649309726    0.0702588747   -0.0847938351
H        0.0095146380    0.1890703810    2.3926627112
C        1.7934632355   -0.9448832003    4.1430370010
O        2.7502839752   -0.7666230362    4.8516483970
O        0.5468177454   -1.0710122346    4.6534114583
H        0.6708113982   -1.0220489682    5.6123856239
H        3.5954065281   -2.1730651801    2.5954338565
H        3.6506069240   -2.3015120366    0.1159355077
15   

H        1.8737394212   -1.2017561252   -1.2273502534
C        1.8548440984   -1.1316265195   -0.1432234924
C        2.8264986680   -1.7872614121    0.6201856197
C        2.8015836751   -1.6941567534    2.0176222523
C        1.8244835839   -0.9416422295    2.6591073548
C        0.8359084455   -0.3018934640    1.8917938265
C        0.8555569484   -0.3900062859    0.4947757552
H        0.0933598755    0.1148181025   -0.0919272846
H        0.0524912170    0.2650287584    2.3883476605
C        1.7910699962   -0.8900048866    4.1451899715
O        2.6770102737   -0.4859195492    4.8509845332
O        0.5974147441   -1.2735548457    4.6513674880
H        0.6959123384   -1.1757463090    5.6094475270
H        3.5577835802   -2.2057505969    2.6082045663
H        3.6011895719   -2.3695059272    0.1293566770
15   

H        1.8759942199   -1.2160235944   -1.2250215860
C        1.8528324647   -1.1344743569   -0.1417757057
C        2.7940655811   -1.8190166393    0.6345525904
C        2.7635605273   -1.7112254378    2.0308891714
C        1.8088804705   -0.9196584023    2.6566764989
C        0.8545996086   -0.2450485847    1.8781747408
C        0.8795039950   -0.3474881720    0.4821827874
H        0.1425633532    0.1822970162   -0.1146954423
H        0.0943203132    0.3599500200    2.3654000631
C        1.7699864762   -0.8345619914    4.1451889787
O        2.5399579867   -0.2183024690    4.8314923067
O        0.7111676838   -1.4888448473    4.6709637978
H        0.7857324275   -1.3482353851    5.6257616285
H        3.4961621946   -2.2446379359    2.6313886309
H        3.5494041213   -2.4346844101    0.1544804804
15   

H        1.9106465744   -1.2132795580   -1.2245240995
C        1.8684754863   -1.1259016682   -0.1423056350
C        2.7633789193   -1.8466281813    0.6560121853
C        2.7082077333   -1.7317931572    2.0510529156
C        1.7676188039   -0.9061614372    2.6526979286
C        0.8706339818   -0.1813077247    1.8528038335
C        0.9201931852   -0.2911092946    0.4579934430
H        0.2238369172    0.2723221739   -0.1565536886
H        0.1363160873    0.4686379170    2.3215827126
C        1.7235761227   -0.7864501195    4.1403386036
O        2.3327034541    0.0170083868    4.7929140153
O        0.9060190951   -1.6989713799    4.7090252635
H        0.9623961651   -1.5211176427    5.6587941665
H        3.4062956571   -2.2911159686    2.6686159098
H        3.5024428228   -2.4949347394    0.1939343761
15   

H        1.9514648961   -1.2011994959   -1.2237352122
C        1.8846902254   -1.1143214566   -0.1427152213
C        2.7255968257   -1.8757491277    0.6763720588
C        2.6387926198   -1.7617487095    2.0698606993
C        1.7112838138   -0.9050314319    2.6491887415
C        0.8813310409   -0.1260149994    1.8284329888
C        0.9626092448   -0.2353228213    0.4350648078
H        0.3135597571    0.3652818241   -0.1958566404
H        0.1751525090    0.5660347063    2.2801703600
C        1.6627618949   -0.7599451383    4.1322855712
O        2.0749866191    0.1840223909    4.7509295601
O        1.1553131928   -1.8515619601    4.7458396184
H        1.1933882641   -1.6420402361    5.6901006178
H        3.2972820442   -2.3501702116    2.7037195600
H        3.4482951058   -2.5539637098    0.2316805958
15   

H        1.9884389884   -1.1981663763   -1.2223627759
C        1.8991898981   -1.1130835277   -0.1428237997
C        2.6940577937   -1.9055251726    0.6924247561
C        2.5786775198   -1.7936236373    2.0840394834
C        1.6632464380   -0.9118247996    2.6466060274
C        0.8864810683   -0.0964131483    1.8086645236
C        0.9964015695   -0.2033858857    0.4171694071
H        0.3858389320    0.4242433593   -0.2257662831
H        0.1995395655    0.6233051585    2.2471979477
C        1.5962172013   -0.7529411735    4.1231769655
O        1.7812278409    0.2768966197    4.7161987547
O        1.3883462725   -1.9219426015    4.7700344439
H        1.3885023420   -1.6850548143    5.7086979059
H        3.2045983983   -2.4055511416    2.7287754613
H        3.4041944235   -2.6057712525    0.2618750062
15   

H        2.0149314654   -1.1944360606   -1.2224247795
C        1.9110673256   -1.1123789882   -0.1439589530
C        2.6681612072   -1.9321751225    0.6994125365
C        2.5343907127   -1.8244161650    2.0897965145
C        1.6372851376   -0.9181310888    2.6452160037
C        0.8985796060   -0.0768995725    1.7970061018
C        1.0272173407   -0.1795075792    0.4069586018
H        0.4454681473    0.4694567032   -0.2415052369
H        0.2252788801    0.6605290241    2.2278617870
C        1.5411137294   -0.7595713251    4.1160844188
O        1.4896788121    0.2955801061    4.6937603843
O        1.5887119594   -1.9344689246    4.7856507779
H        1.5334094472   -1.6844647236    5.7193958054
H        3.1353330844   -2.4599816539    2.7355714435
H        3.3639672306   -2.6510263912    0.2761816584
15   

H        2.0401965786   -1.1866168062   -1.2236655170
C        1.9256940191   -1.1083638141   -0.1459942891
C        2.6489175892   -1.9537233057    0.7011597354
C        2.5017324774   -1.8517468180    2.0907549812
C        1.6270710150   -0.9213588956    2.6441673895
C        0.9177713561   -0.0597307137    1.7893952588
C        1.0602963225   -0.1566433502    0.4005044925
H        0.5019776460    0.5104154611   -0.2502097650
H        0.2537897572    0.6897961055    2.2143288364
C        1.4956788248   -0.7734899047    4.1107672385
O        1.2113706235    0.2520767369    4.6764130352
O        1.7686308142   -1.9065713482    4.7996538706
H        1.6502097151   -1.6594060953    5.7283728851
H        3.0806725293   -2.5125272510    2.7312405281
H        3.3291005321   -2.6893796626    0.2814062462
15   

H        2.0648546712   -1.1740151502   -1.2244974834
C        1.9406967307   -1.1009767094   -0.1475280313
C        2.6308866956   -1.9717979816    0.7007474114
C        2.4713770199   -1.8775965807    2.0896518253
C        1.6211151905   -0.9241232014    2.6435138155
C        0.9377966712   -0.0436201269    1.7849997440
C        1.0931463556   -0.1330593360    0.3971575413
H        0.5565642541    0.5511417760   -0.2540590533
H        0.2815477020    0.7154938323    2.2051743352
C        1.4546560578   -0.7934231178    4.1070663019
O        0.9511230189    0.1524037904    4.6606374231
O        1.9392658318   -1.8416819901    4.8143220730
H        1.7607572755   -1.6121210159    5.7380121038
H        3.0265197933   -2.5652936838    2.7226411206
H        3.2946106247   -2.7230502209    0.2822493996
15   

H        2.1248479256   -1.0886097299   -1.2217068612
C        1.9689205274   -1.0630879358   -0.1466950774
C        3.0551203884   -1.1833803555    0.7247592568
C        2.8547364967   -1.1505359610    2.1112145931
C        1.5758198306   -0.9981885517    2.6410089043
C        0.4868535504   -0.8776673288    1.7576335704
C        0.6811191590   -0.9097913529    0.3722463076
H       -0.1692853363   -0.8155215358   -0.2971323615
H       -0.5184873146   -0.7580303441    2.1557491070
C        1.3386134267   -0.9604966406    4.0999134626
O        0.2563915372   -0.8311031359    4.6169866066
O        2.4596394783   -1.0856136413    4.8494203492
H        2.1436198214   -1.0425286166    5.7637993714
H        3.7224387039   -1.2469562358    2.7588657539
H        4.0585607800   -1.3027877283    0.3261256699
