15   

H        2.1271730525   -1.0610755196   -1.2209014122
C        1.9701896098   -1.0475290628   -0.1458266698
C        3.0517428792   -1.2090818038    0.7250385006
C        2.8496089340   -1.1921315220    2.1114825651
C        1.5750277870   -1.0076546219    2.6408534493
C        0.4892325539   -0.8565614690    1.7591072193
C        0.6850929660   -0.8725806139    0.3736033571
H       -0.1620505989   -0.7512107900   -0.2955391687
H       -0.5139330205   -0.7261667898    2.1592565709
C        1.3363210858   -1.0078906867    4.1002309048
O        0.2532050539   -1.1124340541    4.6203452440
O        2.4619734616   -0.8943814517    4.8444932890
H        2.1478007517   -0.9106857055    5.7603516718
H        3.7101016859   -1.3264421683    2.7620970126
H        4.0522054333   -1.3500597248    0.3259772639
15   

H        2.1246496054   -1.0335578828   -1.2187924164
C        1.9683909077   -1.0309819975   -0.1435314124
C        3.0460755438   -1.2339522429    0.7240822862
C        2.8439259868   -1.2315912278    2.1105048385
C        1.5758537613   -1.0141836917    2.6412106212
C        0.4920515298   -0.8312663531    1.7648207185
C        0.6874149809   -0.8324166378    0.3789799147
H       -0.1568487110   -0.6835755626   -0.2882392416
H       -0.5072636137   -0.6894662280    2.1703975849
C        1.3412581693   -1.0533494998    4.1018494937
O        0.3073782575   -1.3862224383    4.6242210238
O        2.4261759148   -0.7149028509    4.8376133095
H        2.1290457511   -0.7916187346    5.7560149775
H        3.6941599603   -1.4007061549    2.7666499760
H        4.0421698301   -1.3970806761    0.3225634328
15   

H        2.1177449885   -1.0080957800   -1.2164917794
C        1.9639255715   -1.0165759452   -0.1409094567
C        3.0381742327   -1.2615942207    0.7207678709
C        2.8382729610   -1.2736887314    2.1073345668
C        1.5785464729   -1.0245832249    2.6418253198
C        0.4961199757   -0.8062760911    1.7737746529
C        0.6889192793   -0.7925998146    0.3874307237
H       -0.1526106443   -0.6144349588   -0.2760274800
H       -0.4980997561   -0.6504510829    2.1861060385
C        1.3535898644   -1.0994205047    4.1052576715
O        0.4186272776   -1.6454773707    4.6319184925
O        2.3541363163   -0.5472898969    4.8298454182
H        2.0881484362   -0.6791241369    5.7514258282
H        3.6787888550   -1.4750766686    2.7669377715
H        4.0284918458   -1.4467003970    0.3145360778
15   

H        2.1067605623   -0.9837238403   -1.2155332346
C        1.9581514253   -1.0062205146   -0.1394207320
C        3.0296494081   -1.2973250375    0.7117954562
C        2.8360243652   -1.3272288295    2.0988935466
C        1.5870257975   -1.0499551465    2.6422064415
C        0.5058422116   -0.7862417732    1.7866925311
C        0.6923847306   -0.7543509706    0.3996203594
H       -0.1466320120   -0.5407499166   -0.2565023452
H       -0.4808916594   -0.6098394247    2.2079206643
C        1.3771931461   -1.1498765936    4.1105319093
O        0.5893773061   -1.8830917488    4.6473898020
O        2.2370599264   -0.3838117573    4.8190324208
H        2.0116241180   -0.5557870265    5.7446717571
H        3.6699136780   -1.5622553942    2.7556338350
H        4.0120832448   -1.5040851649    0.2969633257
15   

H        2.0896331784   -0.9507902496   -1.2157595464
C        1.9514577999   -0.9933122255   -0.1388610752
C        3.0217381330   -1.3390445749    0.6934664515
C        2.8415350846   -1.3943120820    2.0815637010
C        1.6068433651   -1.0943036303    2.6431602318
C        0.5275842666   -0.7671067601    1.8080133750
C        0.7008689945   -0.7096705683    0.4199561994
H       -0.1361614468   -0.4497452670   -0.2218162918
H       -0.4463801692   -0.5603676693    2.2442928880
C        1.4183744819   -1.2028470139    4.1181755102
O        0.8236908824   -2.0837035743    4.6786892923
O        2.0538799251   -0.2230816997    4.7977142075
H        1.8716594790   -0.4128217038    5.7292572225
H        3.6732241373   -1.6688435100    2.7254200977
H        3.9926313835   -1.5674537809    0.2631016631
15   

H        2.0780868233   -0.9098250091   -1.2148586278
C        1.9525834907   -0.9734708084   -0.1374505217
C        3.0178275616   -1.3854872598    0.6707002806
C        2.8537545594   -1.4680159714    2.0594546257
C        1.6377601395   -1.1415041076    2.6452017903
C        0.5679591306   -0.7298469614    1.8353317939
C        0.7247766619   -0.6452633914    0.4467129066
H       -0.1065119127   -0.3263711948   -0.1756232736
H       -0.3858865580   -0.4777537725    2.2914383297
C        1.4730089987   -1.2405544486    4.1258747246
O        1.1012532053   -2.2147593928    4.7218263265
O        1.7928660855   -0.0917309722    4.7602209302
H        1.6470277485   -0.2803551207    5.6983165556
H        3.6824125468   -1.7907054219    2.6845548291
H        3.9726394047   -1.6427918085    0.2210765886
15   

H        2.0619299822   -0.8790495225   -1.2142884249
C        1.9514688637   -0.9557138481   -0.1360819012
C        3.0114372277   -1.4250709990    0.6471003767
C        2.8664447572   -1.5247666222    2.0368281587
C        1.6710777304   -1.1693990617    2.6487218174
C        0.6126023739   -0.6836220287    1.8642054597
C        0.7500734013   -0.5820559108    0.4747114186
H       -0.0749029770   -0.2118188685   -0.1272487001
H       -0.3175967846   -0.3865710459    2.3416221136
C        1.5383119488   -1.2544280516    4.1318157707
O        1.4097146879   -2.2666544531    4.7662480239
O        1.5123008180   -0.0369476103    4.7172106851
H        1.4075076719   -0.2213766034    5.6616545215
H        3.6920747544   -1.8895828694    2.6426977109
H        3.9478265242   -1.7126185488    0.1774794248
15   

H        2.0487282926   -0.8846210046   -1.2172488887
C        1.9501733101   -0.9588595470   -0.1377204809
C        3.0022850124   -1.4686811697    0.6303329545
C        2.8726607065   -1.5653425127    2.0217252364
C        1.6979208442   -1.1710126480    2.6518016138
C        0.6503152293   -0.6382454113    1.8810806466
C        0.7728985526   -0.5398082624    0.4900044786
H       -0.0447275476   -0.1354385126   -0.0998981963
H       -0.2602933405   -0.3018335355    2.3702923941
C        1.5964290045   -1.2427548451    4.1339544843
O        1.7085418184   -2.2410864406    4.7950790157
O        1.2701426123   -0.0543671966    4.6902017686
H        1.2142092865   -0.2364195579    5.6393666901
H        3.6927049479   -1.9612305484    2.6159929676
H        3.9210358650   -1.7898441894    0.1478198354
15   

H        2.0333480740   -0.9131402595   -1.2227800436
C        1.9445722304   -0.9746813640   -0.1416054142
C        2.9880040823   -1.5117234046    0.6193108825
C        2.8713850995   -1.5919213787    2.0127836059
C        1.7174240984   -1.1528007744    2.6543384806
C        0.6776824873   -0.5944718793    1.8881686687
C        0.7885129683   -0.5127328904    0.4950169958
H       -0.0224196256   -0.0880495346   -0.0898372686
H       -0.2191297770   -0.2253042840    2.3794632417
C        1.6441545613   -1.2154775829    4.1344176728
O        1.9849076384   -2.1537229375    4.8074671940
O        1.0718748640   -0.1194488553    4.6837195210
H        1.0708131277   -0.2971124789    5.6354746309
H        3.6854929735   -2.0098006360    2.6006347442
H        3.8902878776   -1.8671375425    0.1297716529
15   

H        2.0177214554   -0.9530387248   -1.2296521061
C        1.9381291059   -0.9963333994   -0.1468787857
C        2.9725888271   -1.5530641457    0.6115626608
C        2.8683765349   -1.6096800419    2.0070876944
C        1.7361895746   -1.1234446828    2.6558132027
C        0.7023970862   -0.5507018236    1.8890972675
C        0.8022460730   -0.4928422481    0.4939286957
H       -0.0027080499   -0.0551392184   -0.0896011235
H       -0.1835729402   -0.1515384346    2.3766152632
C        1.6838699788   -1.1792633719    4.1339537702
O        2.2303402313   -2.0124054923    4.8120087637
O        0.9059726644   -0.2185083164    4.6851734005
H        0.9568719253   -0.3830067690    5.6380261480
H        3.6777040863   -2.0441231882    2.5899185108
H        3.8587784722   -1.9425880638    0.1185777524
15   

H        1.9967624305   -0.9985487784   -1.2355066736
C        1.9271956036   -1.0218994031   -0.1514282927
C        2.9532646293   -1.5945606604    0.6058808620
C        2.8626774277   -1.6251127168    2.0031200482
C        1.7537231703   -1.0925346466    2.6572694761
C        0.7245635816   -0.5100195773    1.8889142514
C        0.8119453046   -0.4783032184    0.4920856389
H        0.0122841155   -0.0302802433   -0.0909041363
H       -0.1498626456   -0.0810753830    2.3718313536
C        1.7167859944   -1.1395533839    4.1348693982
O        2.4373567390   -1.8226228019    4.8195694351
O        0.7649311611   -0.3497072521    4.6851518975
H        0.8588008219   -0.4876084223    5.6390228286
H        3.6683853144   -2.0734524118    2.5805920348
H        3.8229864930   -2.0170558582    0.1107123020
15   

H        1.9716837908   -1.0475018852   -1.2388639908
C        1.9132133476   -1.0499015087   -0.1538816147
C        2.9316319691   -1.6363231764    0.6029275444
C        2.8559176633   -1.6392787990    2.0013721641
C        1.7711758701   -1.0614683951    2.6583320889
C        0.7462428343   -0.4710201732    1.8892632698
C        0.8193502462   -0.4666599282    0.4912754790
H        0.0247346894   -0.0093774827   -0.0914311560
H       -0.1134979982   -0.0118416488    2.3706635465
C        1.7452535820   -1.0947464362    4.1362315885
O        2.6010901807   -1.5895811598    4.8276185173
O        0.6531705546   -0.5093032219    4.6816360784
H        0.7779856605   -0.6089903904    5.6367401862
H        3.6566943205   -2.0997823863    2.5761517971
H        3.7841533802   -2.0910886482    0.1064277961
15   

H        1.9428083117   -1.0963257642   -1.2386207497
C        1.8962408681   -1.0779958070   -0.1532147328
C        2.9074102541   -1.6776606912    0.6032335774
C        2.8472829559   -1.6530115717    2.0022310415
C        1.7877701653   -1.0308317694    2.6592356365
C        0.7669194254   -0.4332575713    1.8913605339
C        0.8243409466   -0.4558363193    0.4928024631
H        0.0346411905    0.0102407400   -0.0896116101
H       -0.0752432601    0.0541578106    2.3761404034
C        1.7680236527   -1.0466950957    4.1378279895
O        2.7114770644   -1.3258307833    4.8353945750
O        0.5776514799   -0.6891162816    4.6743416119
H        0.7186256168   -0.7416487297    5.6309317188
H        3.6406252518   -2.1237622541    2.5789886737
H        3.7419411479   -2.1639322898    0.1060330798
15   

H        1.9153640940   -1.1385418763   -1.2355605091
C        1.8803414307   -1.1010626172   -0.1502144111
C        2.8824905331   -1.7163503864    0.6063618047
C        2.8371716160   -1.6662333475    2.0052864486
C        1.8045831785   -0.9994947031    2.6597614547
C        0.7894773173   -0.3928857629    1.8941242510
C        0.8314071653   -0.4399933679    0.4956123067
H        0.0476218202    0.0360742193   -0.0866954439
H       -0.0337941287    0.1199069310    2.3852615783
C        1.7840533419   -0.9976994261    4.1397371598
O        2.7616547916   -1.0494982360    4.8426783265
O        0.5419984220   -0.8781428416    4.6641638902
H        0.6825569563   -0.8801511870    5.6221921234
H        3.6205535805   -2.1476981009    2.5866194665
H        3.6978778013   -2.2341902137    0.1092897718
15   

H        1.8897885193   -1.1733117158   -1.2310667795
C        1.8653335024   -1.1182843927   -0.1461792352
C        2.8555595757   -1.7517523882    0.6116652852
C        2.8236111673   -1.6785019759    2.0100256110
C        1.8194261163   -0.9679417384    2.6602269800
C        0.8133159934   -0.3486615862    1.8959988847
C        0.8408644413   -0.4178541992    0.4980397568
H        0.0649308440    0.0702587726   -0.0847937621
H        0.0095145250    0.1890701697    2.3926628190
C        1.7934632355   -0.9448832003    4.1430370010
O        2.7502839752   -0.7666230362    4.8516483970
O        0.5468180466   -1.0710146379    4.6534115608
H        0.6708105980   -1.0220414364    5.6123853620
H        3.5954065032   -2.1730652162    2.5954338609
H        3.6506068833   -2.3015120300    0.1159354913
15   

H        1.8737392843   -1.2017562641   -1.2273502306
C        1.8548439987   -1.1316266129   -0.1432234722
C        2.8264986270   -1.7872614434    0.6201856209
C        2.8015836751   -1.6941567534    2.0176222523
C        1.8244835839   -0.9416422295    2.6591073548
C        0.8359083675   -0.3018935596    1.8917938613
C        0.8555568282   -0.3900064149    0.4947757904
H        0.0933596993    0.1148178927   -0.0919272490
H        0.0524910887    0.2650285816    2.3883476944
C        1.7910699962   -0.8900048866    4.1451899715
O        2.6770102737   -0.4859195492    4.8509845332
O        0.5974157141   -1.2735575192    4.6513677104
H        0.6959097513   -1.1757385980    5.6094470571
H        3.5577835814   -2.2057505787    2.6082045839
H        3.6011895324   -2.3695059486    0.1293566692
15   

H        1.8759942172   -1.2160237067   -1.2250215922
C        1.8528324613   -1.1344744313   -0.1417757145
C        2.7940655847   -1.8190166796    0.6345525962
C        2.7635605273   -1.7112254378    2.0308891714
C        1.8088804705   -0.9196584023    2.6566764989
C        0.8545996043   -0.2450486072    1.8781747208
C        0.8795039850   -0.3474882410    0.4821827660
H        0.1425633300    0.1822969021   -0.1146954880
H        0.0943202786    0.3599499963    2.3653999882
C        1.7699864762   -0.8345619914    4.1451889787
O        2.5399579867   -0.2183024690    4.8314923067
O        0.7111690028   -1.4888467903    4.6709640152
H        0.7857294531   -1.3482307960    5.6257612192
H        3.4961621651   -2.2446379346    2.6313886720
H        3.5494041254   -2.4346844715    0.1544805109
15   

H        1.9106464872   -1.2132796881   -1.2245240969
C        1.8684754181   -1.1259017653   -0.1423056344
C        2.7633789080   -1.8466282084    0.6560121877
C        2.7082077333   -1.7317931572    2.0510529156
C        1.7676188039   -0.9061614372    2.6526979286
C        0.8706339136   -0.1813078101    1.8528038324
C        0.9201930789   -0.2911094344    0.4579934434
H        0.2238367470    0.2723219577   -0.1565536868
H        0.1363159851    0.4686377993    2.3215827100
C        1.7235761227   -0.7864501195    4.1403386036
O        2.3327034541    0.0170083868    4.7929140153
O        0.9060189516   -1.6989712673    4.7090252436
H        0.9623961134   -1.5211176315    5.6587941571
H        3.4062956911   -2.2911159235    2.6686159121
H        3.5024428415   -2.4949347348    0.1939343792
15   

H        1.9514611699   -1.2012022088   -1.2237354455
C        1.8846857192   -1.1143253106   -0.1427154117
C        2.7255929887   -1.8757525468    0.6763715868
C        2.6387882206   -1.7617532588    2.0698602660
C        1.7112776663   -0.9050374246    2.6491887030
C        0.8813242348   -0.1260215561    1.8284330753
C        0.9626032855   -0.2353283405    0.4350648580
H        0.3135535583    0.3652761575   -0.1958564823
H        0.1751450301    0.5660274297    2.2801705188
C        1.6627576143   -0.7599503163    4.1322825295
O        2.0749834754    0.1840236460    4.7509227253
O        1.1553113087   -1.8515652983    4.7458418765
H        1.1933963518   -1.6420435597    5.6901024975
H        3.2972786566   -2.3501739700    2.7037188155
H        3.4482924968   -2.5539656330    0.2316798373
15   

H        1.9884322746   -1.1981718379   -1.2223635738
C        1.8991830437   -1.1130900113   -0.1428245274
C        2.6940529000   -1.9055303864    0.6924233227
C        2.5786730363   -1.7936296870    2.0840381168
C        1.6632396550   -0.9118325715    2.6466059170
C        0.8864723159   -0.0964226256    1.8086645093
C        0.9963928165   -0.2033946743    0.4171693372
H        0.3858289715    0.4242338038   -0.2257659581
H        0.1995298623    0.6232946728    2.2471981291
C        1.5962129775   -0.7529458054    4.1231748595
O        1.7812220763    0.2768979128    4.7161909590
O        1.3883459075   -1.9219443663    4.7700387213
H        1.3885153198   -1.6850537008    5.7087014717
H        3.2045959830   -2.4055556205    2.7287735648
H        3.4041911005   -2.6057744860    0.2618729422
15   

H        2.0149215768   -1.1944442611   -1.2224271095
C        1.9110579339   -1.1123891194   -0.1439610899
C        2.6681555276   -1.9321834006    0.6994086758
C        2.5343863698   -1.8244260447    2.0897928548
C        1.6372779206   -0.9181442789    2.6452156359
C        0.8985684205   -0.0769154421    1.7970061472
C        1.0272051225   -0.1795217017    0.4069584280
H        0.4454532799    0.4694415295   -0.2415040883
H        0.2252660389    0.6605112541    2.2278625525
C        1.5411089085   -0.7595789055    4.1160822823
O        1.4896697931    0.2955813614    4.6937461185
O        1.5887156637   -1.9344694987    4.7856601517
H        1.5334248282   -1.6844558474    5.7194033541
H        3.1353320930   -2.4599893160    2.7355668282
H        3.3639638896   -2.6510315311    0.2761763164
15   

H        2.0401905884   -1.1866235019   -1.2236677261
C        1.9256881716   -1.1083725308   -0.1459963351
C        2.6489149047   -1.9537306431    0.7011561815
C        2.5017305012   -1.8517560583    2.0907516065
C        1.6270662862   -0.9213713044    2.6441669162
C        0.9177631442   -0.0597452252    1.7893951283
C        1.0602876176   -0.1566558211    0.4005041801
H        0.5019665797    0.5104021803   -0.2502088834
H        0.2537795647    0.6897796416    2.2143291244
C        1.4956755607   -0.7734985858    4.1107632085
O        1.2113619973    0.2520745689    4.6764041840
O        1.7686334325   -1.9065748244    4.7996560131
H        1.6502187790   -1.6594031361    5.7283741707
H        3.0806733407   -2.5125348579    2.7312363270
H        3.3291001283   -2.6893841437    0.2814013878
15   

H        2.0648549092   -1.1740144747   -1.2244986418
C        1.9406969750   -1.1009782428   -0.1475290379
C        2.6308888230   -1.9717995968    0.7007446894
C        2.4713793375   -1.8776009104    2.0896492677
C        1.6211153547   -0.9241296484    2.6435138879
C        0.9377949788   -0.0436268551    1.7850007014
C        1.0931447352   -0.1330635924    0.3971583497
H        0.5565612007    0.5511375653   -0.2540570195
H        0.2815444357    0.7154854547    2.2051758650
C        1.4546566499   -0.7934309211    4.1070616868
O        0.9511186087    0.1524007142    4.6606327138
O        1.9392676442   -1.8416878797    4.8143195424
H        1.7607604330   -1.6121246149    5.7380093076
H        3.0265236855   -2.5652979311    2.7226372974
H        3.2946141830   -2.7230497450    0.2822451984
15   

H        2.0869133993   -1.1573567588   -1.2238971861
C        1.9531978442   -1.0915837151   -0.1476030308
C        2.6109762896   -1.9883130931    0.6991181648
C        2.4389648236   -1.9040534453    2.0872114912
C        1.6135344168   -0.9298471498    2.6431869150
C        0.9544077559   -0.0303193429    1.7846256763
C        1.1225171809   -0.1098426333    0.3977283340
H        0.6071071136    0.5915444370   -0.2523109371
H        0.3061436816    0.7364525463    2.2033545193
C        1.4158270656   -0.8205743991    4.1043664813
O        0.7150869652    0.0001981621    4.6434598662
O        2.0995468392   -1.7382239436    4.8286323093
H        1.8698878739   -1.5386220748    5.7479960395
H        2.9660070493   -2.6178585362    2.7151962403
H        3.2580459055   -2.7535749540    0.2799109634
