6    

H       -0.5738896831   -0.0591034534   -0.7673275600
C        0.0265059577    0.3286329345    0.0624007532
H       -0.6523128425    0.6972471918    0.8387804801
O        0.8557890124   -0.6603361910    0.5687622911
H        0.3697194369   -1.4836917603    0.6802302166
Br       1.1586914613    1.7754620478   -0.5756473465
6    

H       -0.5700616066   -0.0847482319   -0.7397931372
C        0.0176068127    0.3321313993    0.0848333952
H       -0.6723081931    0.7389046704    0.8318491390
O        0.8212930565   -0.6421281097    0.6507244346
H        0.4136822223   -1.5103742218    0.5776211197
Br       1.1692768666    1.7554480870   -0.6005021223
6    

H       -0.5783447950   -0.1064384856   -0.7148159417
C        0.0036063382    0.3310030728    0.1031337396
H       -0.6915941138    0.7791128626    0.8210445528
O        0.7673523188   -0.6344618489    0.7259356328
H        0.4809464590   -1.5203882751    0.4858341027
Br       1.1874072660    1.7302178647   -0.6185523171
6    

H       -0.6008155400   -0.1214294165   -0.6914489015
C       -0.0146778304    0.3262494839    0.1179106504
H       -0.7074910202    0.8153951590    0.8109191714
O        0.6999666434   -0.6364018446    0.7873006398
H        0.5667292032   -1.5107505290    0.4089977014
Br       1.2109380020    1.6979772312   -0.6321344240
6    

H       -0.2604598395   -0.1124779246   -0.9356157113
C       -0.0530068624    0.2861478884    0.0629533344
H       -1.0020350528    0.6217193594    0.4945339278
O        0.4857228643   -0.6808204081    0.8633352535
H        0.8221988197   -1.4253920060    0.3532513752
Br       1.1653800933    1.8663572854   -0.0828251648
6    

H       -0.2975852751   -0.1105492505   -0.9367302761
C       -0.0763870936    0.2780318145    0.0628924880
H       -1.0138911755    0.6493206573    0.4904019376
O        0.4121303314   -0.7123610297    0.8589668526
H        0.9225117354   -1.3576735053    0.3551127491
Br       1.2029446674    1.8166542677   -0.0823387185
6    

H       -0.3375275132   -0.0961606761   -0.9425106692
C       -0.0986843349    0.2718448672    0.0608848946
H       -1.0205760909    0.6729389613    0.4953727172
O        0.3506349801   -0.7494746197    0.8376581246
H        1.0134388172   -1.2794658174    0.3760676553
Br       1.2388736074    1.7587335944   -0.0823001346
6    

H       -0.3796260713   -0.0688156128   -0.9523466164
C       -0.1171924212    0.2683668356    0.0560238990
H       -1.0196493108    0.6922936014    0.5092355931
O        0.3026500753   -0.7917456530    0.8006290524
H        1.0910032222   -1.1983819384    0.4167365848
Br       1.2697432603    1.6981847423   -0.0830490317
6    

H       -0.4252493804   -0.0319690169   -0.9640650385
C       -0.1305534697    0.2654958399    0.0479206866
H       -1.0103465887    0.7026368211    0.5320811611
O        0.2692791499   -0.8379763960    0.7479846288
H        1.1516847444   -1.1232876677    0.4770211886
Br       1.2926675790    1.6441641515   -0.0870705316
6    

H       -0.4721606657    0.0106409581   -0.9768788698
C       -0.1379202271    0.2621609083    0.0353002704
H       -0.9933675567    0.7009843440    0.5598700957
O        0.2513387554   -0.8849762839    0.6811041859
H        1.1919756744   -1.0600821392    0.5556259292
Br       1.3067299337    1.6027725353   -0.0941469222
6    

H       -0.5177904877    0.0558067250   -0.9884956820
C       -0.1394461515    0.2585205691    0.0191075890
H       -0.9690351029    0.6879122661    0.5908792989
O        0.2490553683   -0.9282219899    0.6033881813
H        1.2083814522   -1.0099822520    0.6461968028
Br       1.3139865548    1.5763468926   -0.1037999700
6    

H       -0.5595874633    0.0969542002   -0.9971004839
C       -0.1369423178    0.2528388716    0.0011881002
H       -0.9391487317    0.6629652920    0.6239001447
O        0.2623554178   -0.9632881261    0.5193244349
H        1.1995706802   -0.9710181467    0.7414743083
Br       1.3173629474    1.5651724938   -0.1165163957
6    

H       -0.5966536767    0.1314851880   -1.0005016822
C       -0.1313884678    0.2461613851   -0.0156689050
H       -0.9036480914    0.6306672626    0.6590695588
O        0.2892211148   -0.9870997005    0.4346908973
H        1.1649078092   -0.9434950191    0.8348089703
Br       1.3201677998    1.5664709752   -0.1340668405
6    

H       -0.6293765649    0.1567672401   -0.9961687874
C       -0.1230715823    0.2396502919   -0.0285349156
H       -0.8638299896    0.5944096670    0.6959706434
O        0.3282462997   -0.9985999640    0.3556470561
H        1.1071360904   -0.9316587934    0.9213806572
Br       1.3210540778    1.5806252183   -0.1596583155
6    

H       -0.6565744272    0.1714582376   -0.9836528759
C       -0.1113872168    0.2352533965   -0.0358973131
H       -0.8221853022    0.5589450024    0.7318500717
O        0.3774350281   -0.9984456838    0.2882830578
H        1.0308205092   -0.9410299855    0.9976488602
Br       1.3169336847    1.6075746076   -0.1952333407
6    

H       -0.6749684610    0.1759134078   -0.9654128599
C       -0.0951204216    0.2348364147   -0.0381330478
H       -0.7807619907    0.5295064424    0.7633906377
O        0.4350534840   -0.9885876171    0.2371669014
H        0.9413891649   -0.9733144171    1.0604121375
Br       1.3051297936    1.6446851914   -0.2392665551
6    

H       -0.6837546061    0.1690716718   -0.9450768081
C       -0.0759810870    0.2376205688   -0.0365323941
H       -0.7427106507    0.5081882264    0.7890229570
O        0.4992795391   -0.9702849559    0.2051087478
H        0.8434556474   -1.0239495674    1.1061796402
Br       1.2858670524    1.6876943998   -0.2876829556
6    

H       -0.6829365937    0.1542332747   -0.9249171551
C       -0.0541035143    0.2444418254   -0.0327484379
H       -0.7061751079    0.4989223127    0.8093987387
O        0.5686652282   -0.9449394665    0.1926044476
H        0.7418319019   -1.0861820341    1.1311410242
Br       1.2612784149    1.7286160395   -0.3363304650
6    

H       -0.6743582702    0.1315569605   -0.9067049866
C       -0.0317514077    0.2540993244   -0.0283176442
H       -0.6723266533    0.5019096672    0.8245204487
O        0.6415120808   -0.9122691955    0.2000685532
H        0.6407428297   -1.1527422561    1.1327858300
Br       1.2338911660    1.7630614695   -0.3804350573
6    

H       -0.6604064523    0.1036079032   -0.8897489405
C       -0.0106182736    0.2672342124   -0.0234255766
H       -0.6426902175    0.5188529995    0.8346010714
O        0.7145065452   -0.8715399421    0.2273489730
H        0.5460383080   -1.2178260418    1.1088566386
Br       1.2066279175    1.7868277891   -0.4178072392
6    

H       -0.6442483010    0.0706791310   -0.8706791062
C        0.0070418498    0.2813309860   -0.0157236117
H       -0.6216373419    0.5460422412    0.8408709921
O        0.7794815098   -0.8248474683    0.2724918507
H        0.4640668712   -1.2806980957    1.0581460728
Br       1.1837256052    1.7998394336   -0.4510328176
6    

H       -0.6258503627    0.0357091769   -0.8482617158
C        0.0202152108    0.2955345926   -0.0029394281
H       -0.6134696650    0.5796023872    0.8437604468
O        0.8292244082   -0.7759765323    0.3327646787
H        0.4010101576   -1.3405730816    0.9833066522
Br       1.1676640157    1.8038219900   -0.4828482425
6    

H       -0.6058465870    0.0013567908   -0.8229071972
C        0.0279370110    0.3091127819    0.0155685208
H       -0.6187122018    0.6167202396    0.8441129990
O        0.8598532687   -0.7292997456    0.4051711012
H        0.3628959842   -1.3956224897    0.8906087906
Br       1.1580037709    1.8004475411   -0.5146712852
6    

H       -0.5870786097   -0.0304944126   -0.7955698005
C        0.0300331009    0.3205165246    0.0382941858
H       -0.6332905434    0.6560936470    0.8425046401
O        0.8687437554   -0.6898228926    0.4854328259
H        0.3520975846   -1.4443088187    0.7870949006
Br       1.1552147913    1.7905936092   -0.5461351047
