15   

H        1.8844836156   -1.1974120220   -1.1372589073
C        1.8989259026   -1.1491080261   -0.0516466867
C        2.9606301433   -1.7132792602    0.6606462275
C        2.9827074637   -1.6488141865    2.0589067643
C        1.9377002631   -1.0273813666    2.7676382730
C        0.8787644570   -0.4514125373    2.0340868155
C        0.8609359665   -0.5150094687    0.6358011714
H        0.0425689394   -0.0641626247    0.0808542227
H        0.0688492058    0.0724081263    2.5336910498
C        1.9680897212   -0.9741908872    4.2380961931
O        2.9986689886   -1.1458832446    4.8281131912
O        0.8177008376   -0.7689023661    4.9117254249
H        0.0392105000   -0.8750360873    4.3499263529
H        3.8160622201   -2.0885547769    2.6033532367
H        3.7727307432   -2.2015693159    0.1292296066
15   

H        1.8836717605   -1.2629975815   -1.1392468163
C        1.8975126885   -1.2018928140   -0.0542875992
C        2.9496610366   -1.7733274297    0.6666801356
C        2.9716340360   -1.6911772921    2.0642053357
C        1.9362439457   -1.0429529081    2.7629972652
C        0.8870037601   -0.4610357192    2.0206423570
C        0.8685938757   -0.5432193204    0.6235270077
H        0.0576313869   -0.0865559624    0.0625075455
H        0.0863573636    0.0823214849    2.5150183576
C        1.9669692172   -0.9570638609    4.2318026208
O        2.9798986341   -1.1865614993    4.8318058916
O        0.8201798788   -0.6788194542    4.8963881059
H        0.0378185925   -0.9607088413    4.4072844056
H        3.7987830412   -2.1346421779    2.6149667389
H        3.7551667780   -2.2796959835    0.1422474472
15   

H        1.8958468970   -1.3125087643   -1.1453675985
C        1.9057395465   -1.2419780848   -0.0609630431
C        2.9499779027   -1.8156607481    0.6699168476
C        2.9671771910   -1.7205226026    2.0668719712
C        1.9351402632   -1.0554400245    2.7547952922
C        0.8935595885   -0.4730688504    2.0023556218
C        0.8794326232   -0.5687205251    0.6062336997
H        0.0740212029   -0.1107296203    0.0383786665
H        0.0955355261    0.0802666783    2.4903532308
C        1.9609908645   -0.9456829309    4.2222495775
O        2.9519525252   -1.2278115673    4.8353835352
O        0.8187592339   -0.5923984266    4.8733959186
H        0.0425716754   -1.0278574338    4.5047499681
H        3.7891119864   -2.1644866687    2.6248654103
H        3.7535245983   -2.3330186340    0.1533417473
15   

H        1.9219856219   -1.3339013401   -1.1566114574
C        1.9244082483   -1.2605651801   -0.0723837849
C        2.9607635302   -1.8366240626    0.6679745847
C        2.9681703536   -1.7376301107    2.0649091174
C        1.9345626884   -1.0648773523    2.7430506132
C        0.9005088336   -0.4818438088    1.9810001343
C        0.8957455113   -0.5817027915    0.5852589473
H        0.0954018924   -0.1228551342    0.0110256332
H        0.0999445831    0.0732126317    2.4631306429
C        1.9493363838   -0.9460740059    4.2102333606
O        2.9157964688   -1.2750075839    4.8379326195
O        0.8161977537   -0.5119863117    4.8460295134
H        0.0570666120   -1.0666835643    4.6424416260
H        3.7843995560   -2.1830187048    2.6299484979
H        3.7659086092   -2.3585327378    0.1586070402
15   

H        1.9614644994   -1.3224312161   -1.1733842866
C        1.9526736173   -1.2536182296   -0.0889322646
C        2.9803820568   -1.8339641373    0.6601876393
C        2.9726496837   -1.7413378310    2.0576717594
C        1.9329500012   -1.0694570848    2.7274539178
C        0.9072909838   -0.4834504603    1.9565383721
C        0.9172727730   -0.5772456485    0.5605040042
H        0.1222453882   -0.1165698448   -0.0195396404
H        0.0997827382    0.0659344629    2.4336924432
C        1.9291472176   -0.9585095122    4.1957072780
O        2.8728462897   -1.3253088097    4.8365547622
O        0.8133990387   -0.4410092316    4.8144934309
H        0.0849154923   -1.0676539482    4.8165609711
H        3.7819504657   -2.1906289152    2.6293856972
H        3.7902691378   -2.3546167112    0.1571879911
15   

H        2.0124666995   -1.2864576412   -1.1912259372
C        1.9887857206   -1.2287790686   -0.1063858447
C        3.0061190551   -1.8165363626    0.6511123147
C        2.9781718324   -1.7394006389    2.0493698027
C        1.9290784085   -1.0744427628    2.7116036257
C        0.9136994662   -0.4819064610    1.9321022852
C        0.9434627316   -0.5606422189    0.5354837516
H        0.1549013313   -0.0960643438   -0.0501632751
H        0.0962678936    0.0569006005    2.4044494490
C        1.8997871848   -0.9847667810    4.1816034081
O        2.8238412094   -1.3846559978    4.8327016725
O        0.8135931305   -0.3839986397    4.7813436128
H        0.1343853978   -1.0226276622    5.0130069205
H        3.7788256128   -2.1957548303    2.6274542517
H        3.8230980648   -2.3317372884    0.1541013979
15   

H        2.0645193909   -1.2497815917   -1.2060674338
C        2.0244730366   -1.2045360509   -0.1211522272
C        3.0313961158   -1.7988726345    0.6450825934
C        2.9814340493   -1.7388871839    2.0436503181
C        1.9210713071   -1.0834288080    2.6976862053
C        0.9160193871   -0.4850762661    1.9090873942
C        0.9674218161   -0.5470994456    0.5123207416
H        0.1854479368   -0.0791673678   -0.0793890352
H        0.0874561777    0.0417520573    2.3755845243
C        1.8644636305   -1.0161122555    4.1688072952
O        2.7727895320   -1.4447172497    4.8270557774
O        0.8119089140   -0.3497498152    4.7476210989
H        0.2118246188   -0.9482730340    5.2015791505
H        3.7735148782   -2.2016830763    2.6282177733
H        3.8568860416   -2.3066969327    0.1546817348
15   

H        2.1054626045   -1.2293151657   -1.2160851673
C        2.0505478690   -1.1936020580   -0.1314905802
C        3.0484523529   -1.7918672084    0.6434522750
C        2.9786941739   -1.7449676856    2.0417457177
C        1.9079333171   -1.0974935729    2.6870041781
C        0.9117505090   -0.4960072091    1.8893576191
C        0.9825262178   -0.5455183514    0.4929999195
H        0.2063021533   -0.0760371798   -0.1049737667
H        0.0733160417    0.0209176095    2.3493629758
C        1.8283876185   -1.0446254665    4.1582480503
O        2.7179557128   -1.5064188120    4.8231435473
O        0.8069598146   -0.3320784798    4.7179659736
H        0.3143662119   -0.8554760994    5.3592634566
H        3.7635665468   -2.2116503918    2.6327669387
H        3.8820114985   -2.2931013997    0.1600463958
15   

H        2.1395100407   -1.2160506575   -1.2221904247
C        2.0722385517   -1.1858932585   -0.1381392651
C        3.0670559512   -1.7782287405    0.6453620229
C        2.9811090594   -1.7386664306    2.0430524526
C        1.8969735901   -1.1044939809    2.6790795200
C        0.9035604093   -0.5098796516    1.8727677914
C        0.9907001450   -0.5516398211    0.4771424984
H        0.2160995720   -0.0875755135   -0.1271112758
H        0.0537556466   -0.0056937964    2.3261862691
C        1.7990665535   -1.0595178949    4.1496603314
O        2.6824184080   -1.5241133775    4.8236025509
O        0.7732467616   -0.3583028982    4.6950932323
H        0.4261062690   -0.8001900064    5.4800685747
H        3.7633096024   -2.2012041809    2.6407307186
H        3.9105164308   -2.2695182871    0.1690295444
15   

H        2.1597704378   -1.2033965236   -1.2262337299
C        2.0832731308   -1.1788244892   -0.1426623097
C        3.0755150132   -1.7681128252    0.6464387724
C        2.9774432041   -1.7359835926    2.0435511137
C        1.8837194637   -1.1121797731    2.6732774423
C        0.8926066480   -0.5213403515    1.8614183985
C        0.9918906043   -0.5555253180    0.4664159043
H        0.2186554604   -0.0946658760   -0.1420083022
H        0.0346213323   -0.0271827212    2.3105995338
C        1.7732893668   -1.0739759448    4.1431246634
O        2.6438080444   -1.5545251973    4.8245058725
O        0.7399032048   -0.3917489861    4.6808940055
H        0.5371981302   -0.7272174910    5.5654997440
H        3.7573433891   -2.1965558859    2.6456724473
H        3.9261451736   -2.2515682498    0.1748890168
15   

H        2.1789665803   -1.1891787550   -1.2286798940
C        2.0952157822   -1.1693741357   -0.1455524746
C        3.0879681369   -1.7519980229    0.6479200680
C        2.9803164361   -1.7262608196    2.0444847049
C        1.8762592374   -1.1158458145    2.6690379113
C        0.8843832241   -0.5322795407    1.8529577185
C        0.9934512800   -0.5596212973    0.4585602368
H        0.2193250164   -0.1046449994   -0.1531445723
H        0.0177765823   -0.0501306912    2.2987463648
C        1.7556163487   -1.0842057432    4.1380139996
O        2.6168335977   -1.5726145196    4.8267461092
O        0.6983563091   -0.4452919620    4.6712270085
H        0.6316778721   -0.6531536498    5.6154453424
H        3.7600926484   -2.1822252524    2.6502287001
H        3.9461100502   -2.2257391025    0.1801523409
15   

H        2.1947374643   -1.1718993327   -1.2287321922
C        2.1059673879   -1.1574190424   -0.1459220312
C        3.1015892659   -1.7322260070    0.6496946418
C        2.9872788239   -1.7136387513    2.0458615055
C        1.8733663983   -1.1187168901    2.6677320557
C        0.8783520951   -0.5435258694    1.8495567090
C        0.9943766559   -0.5631388382    0.4556082639
H        0.2175955285   -0.1149157274   -0.1577180445
H        0.0034217666   -0.0748249443    2.2934684140
C        1.7453979085   -1.0948666235    4.1361303246
O        2.6008502046   -1.5892391563    4.8282333557
O        0.6573499088   -0.5109972470    4.6661220628
H        0.6999389110   -0.5653211222    5.6333332705
H        3.7687697519   -2.1642754124    2.6533678754
H        3.9668078307   -2.1948620654    0.1838598967
15   

H        2.2009821869   -1.1492781409   -1.2274091671
C        2.1103883130   -1.1418745262   -0.1446768106
C        3.1112076977   -1.7098787982    0.6492615816
C        2.9944053984   -1.7007243279    2.0452979158
C        1.8725225335   -1.1226135149    2.6688219939
C        0.8719832005   -0.5547473915    1.8522414769
C        0.9908373967   -0.5643547996    0.4584089366
H        0.2096733769   -0.1221327936   -0.1537022864
H       -0.0099695938   -0.1004091429    2.2971438829
C        1.7418525834   -1.1091454935    4.1372193448
O        2.5956212908   -1.6110535645    4.8255198551
O        0.6233568342   -0.5811941972    4.6668987331
H        0.7380839982   -0.4603478616    5.6215896631
H        3.7795790710   -2.1469071997    2.6513535571
H        3.9821292976   -2.1604601250    0.1822317771
15   

H        2.2026977214   -1.1256012390   -1.2237546153
C        2.1119331911   -1.1268845597   -0.1410068126
C        3.1182429337   -1.6906773994    0.6489068120
C        3.0011358548   -1.6930443074    2.0449202770
C        1.8732985403   -1.1310632825    2.6726769283
C        0.8668929361   -0.5679392316    1.8599346064
C        0.9863270039   -0.5656077394    0.4660953131
H        0.2005685577   -0.1274444940   -0.1430521811
H       -0.0207103882   -0.1274572268    2.3074055210
C        1.7425057022   -1.1297618481    4.1413487381
O        2.5948292523   -1.6432847721    4.8216789977
O        0.5999696414   -0.6453359559    4.6728183693
H        0.7515957899   -0.3386902404    5.5778783972
H        3.7903771480   -2.1366874622    2.6475811777
H        3.9934774942   -2.1295431368    0.1787777624
15   

H        2.2024824163   -1.1019435715   -1.2185553604
C        2.1119022873   -1.1140231601   -0.1358498774
C        3.1223021552   -1.6781163737    0.6485532494
C        3.0053602615   -1.6947193868    2.0444542353
C        1.8737106467   -1.1466518029    2.6777359397
C        0.8627481366   -0.5838441322    1.8704088567
C        0.9821272589   -0.5671840521    0.4766448158
H        0.1928266594   -0.1297621089   -0.1284592881
H       -0.0290771614   -0.1558079096    2.3213995010
C        1.7438508674   -1.1595768666    4.1464720475
O        2.5897002815   -1.6921276373    4.8182492012
O        0.5891191364   -0.6919566598    4.6844649821
H        0.7563617458   -0.2017551547    5.4991357891
H        3.7976015473   -2.1390582721    2.6427140892
H        4.0004581731   -2.1065307181    0.1742255370
15   

H        2.1953612092   -1.0663974471   -1.2108954151
C        2.1066652033   -1.0919033380   -0.1282509953
C        3.1239641872   -1.6550189124    0.6478125421
C        3.0094443996   -1.6892372019    2.0435219093
C        1.8734312904   -1.1600168657    2.6850123884
C        0.8549393528   -0.5989621553    1.8860769113
C        0.9721568612   -0.5643106629    0.4924002226
H        0.1772352881   -0.1287156345   -0.1066536674
H       -0.0417700473   -0.1876466521    2.3427172908
C        1.7466811696   -1.1926938506    4.1535312613
O        2.5937540428   -1.7314971790    4.8159724646
O        0.5843044840   -0.7355723178    4.7051138892
H        0.7466948565   -0.0720224771    5.3842213722
H        3.8068014697   -2.1332930403    2.6352647427
H        4.0054388326   -2.0694178616    0.1671736210
15   

H        2.1905483257   -1.0213871856   -1.1987902121
C        2.1017214554   -1.0645456685   -0.1166908555
C        3.1207562812   -1.6369310636    0.6502438603
C        3.0057335128   -1.6948539129    2.0450560012
C        1.8682752568   -1.1791155896    2.6946408262
C        0.8474459800   -0.6093575199    1.9051304836
C        0.9649115327   -0.5516556571    0.5121773230
H        0.1680553880   -0.1106955532   -0.0803920972
H       -0.0525483675   -0.2119837580    2.3675035938
C        1.7415560525   -1.2388603941    4.1617148102
O        2.5707986420   -1.8107868799    4.8154003260
O        0.6010662935   -0.7318610651    4.7354519092
H        0.7746081666    0.0716806668    5.2340629708
H        3.8038330588   -2.1467412663    2.6299714752
H        4.0036897371   -2.0406505715    0.1631594612
15   

H        2.1933777518   -0.9585881561   -1.1807849006
C        2.1027733424   -1.0221942608   -0.0998081527
C        3.1220298674   -1.6064663562    0.6578009041
C        3.0042615658   -1.6921124355    2.0508731444
C        1.8645697285   -1.1913449086    2.7078769653
C        0.8429088572   -0.6101930628    1.9280132570
C        0.9629541440   -0.5253117301    0.5366064868
H        0.1652599684   -0.0772850047   -0.0495676837
H       -0.0614262704   -0.2288805631    2.3953440774
C        1.7335516212   -1.2860274488    4.1720040923
O        2.5470794022   -1.8862187993    4.8167186007
O        0.6300193536   -0.7166803774    4.7707449260
H        0.8012632659    0.1859191574    5.0515072455
H        3.8016591476   -2.1543678319    2.6287695904
H        4.0068326735   -1.9987510264    0.1647052956
15   

H        2.1960990484   -0.8972103915   -1.1598414728
C        2.1040393237   -0.9793052872   -0.0801961038
C        3.1227985511   -1.5758692364    0.6684077361
C        3.0027449131   -1.6868024836    2.0594081829
C        1.8620053821   -1.1980365519    2.7233573787
C        0.8401412578   -0.6051530803    1.9526602504
C        0.9623443989   -0.4955698007    0.5631038637
H        0.1643431408   -0.0402840392   -0.0171118216
H       -0.0679739270   -0.2380981667    2.4240060112
C        1.7266546409   -1.3254933139    4.1840171593
O        2.5229916889   -1.9593575847    4.8163591587
O        0.6772039887   -0.6878346228    4.8066287560
H        0.8181736138    0.2612559474    4.8588873728
H        3.7989622807   -2.1598043430    2.6303672070
H        4.0085901133   -1.9589599449    0.1697900079
15   

H        2.1842846769   -0.8585705921   -1.1414694935
C        2.0943918628   -0.9525357544   -0.0625702597
C        3.1143853169   -1.5582435389    0.6768470074
C        2.9970439300   -1.6853279562    2.0665813254
C        1.8585855385   -1.2025970623    2.7386680021
C        0.8345074689   -0.6014882305    1.9771893177
C        0.9539597540   -0.4762340894    0.5886179563
H        0.1545048347   -0.0157789349    0.0144334353
H       -0.0748363680   -0.2435728749    2.4530366081
C        1.7265393064   -1.3498761132    4.1973771368
O        2.5034087052   -2.0224237029    4.8141474954
O        0.7378277358   -0.6540267079    4.8415011394
H        0.8070926336    0.2927333846    4.6857291610
H        3.7938464565   -2.1659215311    2.6305016530
H        3.9988851976   -1.9363372066    0.1720622108
15   

H        2.1519459332   -0.8483867393   -1.1305821256
C        2.0684025848   -0.9471885709   -0.0515712826
C        3.0908371830   -1.5603850185    0.6780509229
C        2.9819747808   -1.6937064404    2.0677289859
C        1.8505828078   -1.2086841038    2.7499159812
C        0.8228020651   -0.6013045125    1.9982719225
C        0.9337154673   -0.4703475644    0.6093681272
H        0.1321172598   -0.0054468850    0.0417324682
H       -0.0838836265   -0.2448957138    2.4799959887
C        1.7320799397   -1.3605367496    4.2090372779
O        2.4827995999   -2.0780554326    4.8083043997
O        0.8064534336   -0.6146942322    4.8726871738
H        0.7703461006    0.2910990003    4.5467632775
H        3.7807973454   -2.1795559702    2.6243889506
H        3.9708257390   -1.9392080159    0.1658892453
15   

H        2.1034284487   -0.8647320723   -1.1265610135
C        2.0299449996   -0.9618843564   -0.0466427376
C        3.0549660819   -1.5824811558    0.6727594469
C        2.9596147702   -1.7129566898    2.0635118924
C        1.8403926552   -1.2166604924    2.7574640792
C        0.8086378450   -0.6030551186    2.0161181385
C        0.9059075207   -0.4755938290    0.6256805680
H        0.1022860164   -0.0056268569    0.0650845150
H       -0.0911831155   -0.2394315748    2.5047688214
C        1.7446312744   -1.3600023303    4.2189677666
O        2.4629322401   -2.1234549509    4.8019628397
O        0.8796504269   -0.5710367319    4.8998210819
H        0.7136785513    0.2641547569    4.4462994831
H        3.7609917697   -2.2031278001    2.6127858606
H        3.9269212808   -1.9684238361    0.1521630195
15   

H        2.0483721885   -0.9004099986   -1.1277966908
C        1.9860119366   -0.9912919866   -0.0466179711
C        3.0102242588   -1.6234076591    0.6635124499
C        2.9298572518   -1.7445981394    2.0558593071
C        1.8278836177   -1.2264033976    2.7613005632
C        0.7957479779   -0.6018668671    2.0292944273
C        0.8776487599   -0.4847287041    0.6367657676
H        0.0748306477   -0.0057042152    0.0827150397
H       -0.0926445724   -0.2202689996    2.5243670728
C        1.7595380070   -1.3521456080    4.2260588572
O        2.4386596347   -2.1607815522    4.7957903969
O        0.9540626887   -0.5217672158    4.9195987469
H        0.6435407285    0.2201966115    4.3848134531
H        3.7315663256   -2.2416884290    2.5984804414
H        3.8706041476   -2.0242027843    0.1348841303
15   

H        1.9917912985   -0.9392917074   -1.1330658686
C        1.9428054498   -1.0198662822   -0.0503772081
C        2.9616868017   -1.6703967821    0.6501048745
C        2.8991579398   -1.7770343148    2.0443351256
C        1.8214338642   -1.2257538847    2.7626950522
C        0.7944338948   -0.5812687838    2.0399399740
C        0.8580568684   -0.4798259453    0.6450023883
H        0.0601674941    0.0153257842    0.0980784374
H       -0.0754944760   -0.1674583281    2.5406505481
C        1.7842938436   -1.3319329438    4.2312348889
O        2.4463763271   -2.1623277464    4.7902588936
O        1.0071194014   -0.4880788124    4.9361972834
H        0.5258321485    0.1307977126    4.3713620098
H        3.6984681316   -2.2865868931    2.5789348399
H        3.8049744910   -2.0954897912    0.1129514122
