15   

H        2.1271734820   -1.0610761720   -1.2209000616
C        1.9701880009   -1.0475306989   -0.1458256043
C        3.0517400078   -1.2090820120    0.7250415191
C        2.8496035073   -1.1921327329    2.1114852719
C        1.5750217493   -1.0076583079    2.6408529889
C        0.4892273779   -0.8565668513    1.7591057559
C        0.6850900314   -0.8725849012    0.3736021958
H       -0.1620525731   -0.7512161690   -0.2955417373
H       -0.5139387295   -0.7261741115    2.1592543472
C        1.3363139185   -1.0078945632    4.1002347776
O        0.2532049108   -1.1124393342    4.6203504509
O        2.4619676906   -0.8943820533    4.8444944941
H        2.1477969416   -0.9106864345    5.7603535054
H        3.7100954672   -1.3264421039    2.7621010034
H        4.0522035601   -1.3500578897    0.3259820621
15   

H        2.1246472612   -1.0335679469   -1.2187905139
C        1.9683865193   -1.0309928063   -0.1435298051
C        3.0460703660   -1.2339597635    0.7240858378
C        2.8439185366   -1.2315988433    2.1105081007
C        1.5758451323   -1.0141948099    2.6412102956
C        0.4920431633   -0.8312814945    1.7648196894
C        0.6874088978   -0.8324314296    0.3789791909
H       -0.1568539844   -0.6835926499   -0.2882414990
H       -0.5072725750   -0.6894837031    2.1703958280
C        1.3412519635   -1.0533571554    4.1018528964
O        0.3073808204   -1.3862309155    4.6242305881
O        2.4261711293   -0.7149005050    4.8376100780
H        2.1290453980   -0.7916134709    5.7560133939
H        3.6941522670   -1.4007105826    2.7666543635
H        4.0421658718   -1.3970850373    0.3225687246
15   

H        2.1177430440   -1.0081098658   -1.2164901250
C        1.9639218302   -1.0165902337   -0.1409080606
C        3.0381700270   -1.2616045075    0.7207711763
C        2.8382667866   -1.2736982318    2.1073376471
C        1.5785392440   -1.0245961847    2.6418248852
C        0.4961126091   -0.8062937449    1.7737735812
C        0.6889138363   -0.7926179496    0.3874299092
H       -0.1526155215   -0.6144557901   -0.2760297352
H       -0.4981077446   -0.6504706740    2.1861041409
C        1.3535862452   -1.0994281784    4.1052591957
O        0.4186322885   -1.6454844608    4.6319319426
O        2.3541331942   -0.5472844922    4.8298364275
H        2.0881516737   -0.6791132391    5.7514194474
H        3.6787827124   -1.4750821802    2.7669420405
H        4.0284889183   -1.4467075196    0.3145410513
15   

H        2.1067586619   -0.9837344418   -1.2155328115
C        1.9581488609   -1.0062315267   -0.1394204092
C        3.0296469142   -1.2973336445    0.7117965563
C        2.8360211088   -1.3272371152    2.0988945858
C        1.5870224546   -1.0499659896    2.6422061447
C        0.5058384165   -0.7862552481    1.7866920615
C        0.6923813470   -0.7543644806    0.3996199456
H       -0.1466354241   -0.5407648356   -0.2565031799
H       -0.4808956853   -0.6098538436    2.2079200259
C        1.3771912808   -1.1498826846    4.1105338262
O        0.5893811345   -1.8830960933    4.6473983084
O        2.2370565755   -0.3838099031    4.8190275514
H        2.0116243402   -0.5557812378    5.7446684715
H        3.6699107227   -1.5622608931    2.7556354885
H        4.0120815065   -1.5040915863    0.2969651256
15   

H        2.0896327865   -0.9507973536   -1.2157594823
C        1.9514566601   -0.9933203751   -0.1388611499
C        3.0217368317   -1.3390518344    0.6934669609
C        2.8415329041   -1.3943200049    2.0815640886
C        1.6068408550   -1.0943136274    2.6431597313
C        0.5275817713   -0.7671176583    1.8080125340
C        0.7008671585   -0.7096805497    0.4199554829
H       -0.1361631076   -0.4497554785   -0.2218173262
H       -0.4463828914   -0.5603791175    2.2442917860
C        1.4183718898   -1.2028539988    4.1181781231
O        0.8236936331   -2.0837055336    4.6786978889
O        2.0538754256   -0.2230826424    4.7977098399
H        1.8716576431   -0.4128181289    5.7292542704
H        3.6732220088   -1.6688499394    2.7254210423
H        3.9926307379   -1.5674593784    0.2631027712
15   

H        2.0780868853   -0.9098247538   -1.2148586101
C        1.9525835339   -0.9734706379   -0.1374505102
C        3.0178275793   -1.3854871779    0.6707002848
C        2.8537545594   -1.4680159714    2.0594546257
C        1.6377601395   -1.1415041076    2.6452017903
C        0.5679591499   -0.7298468889    1.8353317997
C        0.7247767038   -0.6452632311    0.4467129199
H       -0.1065118499   -0.3263709618   -0.1756232522
H       -0.3858865391   -0.4777536917    2.2914383306
C        1.4730089987   -1.2405544486    4.1258747246
O        1.1012532053   -2.2147593928    4.7218263265
O        1.7928660774   -0.0917309695    4.7602209374
H        1.6470277619   -0.2803551182    5.6983165678
H        3.6824125329   -1.7907054703    2.6845548225
H        3.9726394235   -1.6427917203    0.2210765915
15   

H        2.0619300866   -0.8790493648   -1.2142884108
C        1.9514689304   -0.9557137312   -0.1360818934
C        3.0114372657   -1.4250709417    0.6471003859
C        2.8664447572   -1.5247666222    2.0368281587
C        1.6710777304   -1.1693990617    2.6487218174
C        0.6126024072   -0.6836219520    1.8642054562
C        0.7500734646   -0.5820557822    0.4747114183
H       -0.0749028882   -0.2118186868   -0.1272487044
H       -0.3175967469   -0.3865709392    2.3416221016
C        1.5383119488   -1.2544280516    4.1318157707
O        1.4097146879   -2.2666544531    4.7662480239
O        1.5123008180   -0.0369476095    4.7172106854
H        1.4075068552   -0.2213765763    5.6616544364
H        3.6920747337   -1.8895829052    2.6426977177
H        3.9478265730   -1.7126184830    0.1774794485
15   

H        2.0487283108   -0.8846208742   -1.2172488702
C        1.9501733251   -0.9588594527   -0.1377204647
C        3.0022850186   -1.4686811228    0.6303329556
C        2.8726607065   -1.5653425127    2.0217252364
C        1.6979208442   -1.1710126480    2.6518016138
C        0.6503152409   -0.6382453612    1.8810806653
C        0.7728985725   -0.5398081614    0.4900045038
H       -0.0447275172   -0.1354383621   -0.0998981522
H       -0.2602933226   -0.3018334775    2.3702924205
C        1.5964290045   -1.2427548451    4.1339544843
O        1.7085418184   -2.2410864406    4.7950790157
O        1.2701426386   -0.0543671908    4.6902017795
H        1.2142082729   -0.2364197845    5.6393665967
H        3.6927049387   -1.9612305789    2.6159929604
H        3.9210358707   -1.7898441353    0.1478198267
15   

H        2.0333481693   -0.9131399614   -1.2227800114
C        1.9445722944   -0.9746811629   -0.1416053899
C        2.9880041134   -1.5117232920    0.6193108907
C        2.8713850995   -1.5919213787    2.0127836059
C        1.7174240984   -1.1528007744    2.6543384806
C        0.6776825194   -0.5944717960    1.8881686879
C        0.7885130279   -0.5127327129    0.4950170269
H       -0.0224195427   -0.0880492864   -0.0898372179
H       -0.2191297341   -0.2253041856    2.3794632693
C        1.6441545613   -1.2154775829    4.1344176728
O        1.9849076384   -2.1537229375    4.8074671940
O        1.0718748463   -0.1194488667    4.6837195229
H        1.0708122440   -0.2971129148    5.6354745523
H        3.6854929532   -2.0098006867    2.6006347366
H        3.8902879172   -1.8671373966    0.1297716532
15   

H        2.0177215284   -0.9530385298   -1.2296520914
C        1.9381291656   -0.9963332645   -0.1468787743
C        2.9725888551   -1.5530640830    0.6115626650
C        2.8683765349   -1.6096800419    2.0070876944
C        1.7361895746   -1.1234446828    2.6558132027
C        0.7023971210   -0.5507017482    1.8890972736
C        0.8022461378   -0.4928421023    0.4939287078
H       -0.0027079476   -0.0551390000   -0.0896011056
H       -0.1835729007   -0.1515383358    2.3766152603
C        1.6838699788   -1.1792633719    4.1339537702
O        2.2303402313   -2.0124054923    4.8120087637
O        0.9059726663   -0.2185083149    4.6851734028
H        0.9568714393   -0.3830071391    5.6380261123
H        3.6777040610   -2.0441232303    2.5899185145
H        3.8587785018   -1.9425880077    0.1185777624
15   

H        1.9967624106   -0.9985488136   -1.2355066731
C        1.9271955868   -1.0218994288   -0.1514282916
C        2.9532646238   -1.5945606623    0.6058808641
C        2.8626774277   -1.6251127168    2.0031200482
C        1.7537231703   -1.0925346466    2.6572694761
C        0.7245635763   -0.5100195845    1.8889142557
C        0.8119452857   -0.4783032533    0.4920856428
H        0.0122840842   -0.0302802980   -0.0909041291
H       -0.1498626473   -0.0810753863    2.3718313598
C        1.7167859944   -1.1395533839    4.1348693982
O        2.4373567390   -1.8226228019    4.8195694351
O        0.7649311879   -0.3497072226    4.6851519011
H        0.8588006777   -0.4876085949    5.6390228189
H        3.6683853155   -2.0734524096    2.5805920351
H        3.8229864865   -2.0170558624    0.1107123071
15   

H        1.9716838135   -1.0475019053   -1.2388639965
C        1.9132133634   -1.0499015233   -0.1538816201
C        2.9316319788   -1.6363231892    0.6029275459
C        2.8559176633   -1.6392787990    2.0013721641
C        1.7711758701   -1.0614683951    2.6583320889
C        0.7462428369   -0.4710201801    1.8892632613
C        0.8193502595   -0.4666599403    0.4912754677
H        0.0247347076   -0.0093774992   -0.0914311778
H       -0.1134979969   -0.0118416597    2.3706635377
C        1.7452535820   -1.0947464362    4.1362315885
O        2.6010901807   -1.5895811598    4.8276185173
O        0.6531705494   -0.5093032301    4.6816360767
H        0.7779856487   -0.6089904075    5.6367401844
H        3.6566943169   -2.0997823832    2.5761518047
H        3.7841533923   -2.0910886662    0.1064278078
15   

H        1.9428083057   -1.0963257388   -1.2386207505
C        1.8962408642   -1.0779957876   -0.1532147334
C        2.9074102485   -1.6776606809    0.6032335753
C        2.8472829559   -1.6530115717    2.0022310415
C        1.7877701653   -1.0308317694    2.6592356365
C        0.7669194338   -0.4332575512    1.8913605371
C        0.8243409490   -0.4558362918    0.4928024676
H        0.0346411951    0.0102407827   -0.0896115973
H       -0.0752432463    0.0541578389    2.3761404088
C        1.7680236527   -1.0466950957    4.1378279895
O        2.7114770644   -1.3258307833    4.8353945750
O        0.5776514735   -0.6891162866    4.6743416094
H        0.7186256769   -0.7416484565    5.6309317216
H        3.6406252475   -2.1237622641    2.5789886716
H        3.7419411354   -2.1639322869    0.1060330734
15   

H        1.9153640372   -1.1385419578   -1.2355605062
C        1.8803413972   -1.1010626674   -0.1502144093
C        2.8824905012   -1.7163504352    0.6063618057
C        2.8371716160   -1.6662333475    2.0052864486
C        1.8045831785   -0.9994947031    2.6597614547
C        0.7894773202   -0.3928857609    1.8941242523
C        0.8314071566   -0.4399933815    0.4956123094
H        0.0476218135    0.0360742086   -0.0866954413
H       -0.0337941159    0.1199069447    2.3852615823
C        1.7840533419   -0.9976994261    4.1397371598
O        2.7616547916   -1.0494982360    4.8426783265
O        0.5419984210   -0.8781428648    4.6641638962
H        0.6825570114   -0.8801506211    5.6221921237
H        3.6205535788   -2.1476980986    2.5866194708
H        3.6978777442   -2.2341902996    0.1092897718
15   

H        1.8897885228   -1.1733117009   -1.2310667808
C        1.8653335028   -1.1182843880   -0.1461792371
C        2.8555595805   -1.7517523792    0.6116652830
C        2.8236111673   -1.6785019759    2.0100256110
C        1.8194261163   -0.9679417384    2.6602269800
C        0.8133159861   -0.3486615962    1.8959988813
C        0.8408644344   -0.4178542070    0.4980397546
H        0.0649308341    0.0702587622   -0.0847937674
H        0.0095145065    0.1890701446    2.3926628108
C        1.7934632355   -0.9448832003    4.1430370010
O        2.7502839752   -0.7666230362    4.8516483970
O        0.5468180480   -1.0710146240    4.6534115613
H        0.6708105017   -1.0220404722    5.6123853274
H        3.5954065076   -2.1730652102    2.5954338603
H        3.6506068915   -2.3015120123    0.1159354829
15   

H        1.8737394153   -1.2017561290   -1.2273502435
C        1.8548440930   -1.1316265109   -0.1432234837
C        2.8264986697   -1.7872614049    0.6201856209
C        2.8015836751   -1.6941567534    2.0176222523
C        1.8244835839   -0.9416422295    2.6591073548
C        0.8359084193   -0.3018934953    1.8917938484
C        0.8555569266   -0.3900062974    0.4947757727
H        0.0933598388    0.1148180667   -0.0919272733
H        0.0524911593    0.2650286755    2.3883476748
C        1.7910699962   -0.8900048866    4.1451899715
O        2.6770102737   -0.4859195492    4.8509845332
O        0.5974157159   -1.2735575242    4.6513677107
H        0.6959093996   -1.1757375926    5.6094469900
H        3.5577835434   -2.2057506228    2.6082045947
H        3.6011895727   -2.3695059291    0.1293566847
15   

H        1.8759942667   -1.2160236238   -1.2250216017
C        1.8528324980   -1.1344743679   -0.1417757209
C        2.7940655947   -1.8190166560    0.6345525918
C        2.7635605273   -1.7112254378    2.0308891714
C        1.8088804705   -0.9196584023    2.6566764989
C        0.8545996307   -0.2450485695    1.8781747217
C        0.8795040331   -0.3474881674    0.4821827641
H        0.1425634010    0.1822970147   -0.1146954833
H        0.0943203162    0.3599500464    2.3653999901
C        1.7699864762   -0.8345619914    4.1451889787
O        2.5399579867   -0.2183024690    4.8314923067
O        0.7111689963   -1.4888467720    4.6709640169
H        0.7857290134   -1.3482300943    5.6257611540
H        3.4961621487   -2.2446379582    2.6313886714
H        3.5494041233   -2.4346844590    0.1544805055
15   

H        1.9106465075   -1.2132797171   -1.2245240957
C        1.8684754293   -1.1259017797   -0.1423056348
C        2.7633789008   -1.8466282322    0.6560121915
C        2.7082077333   -1.7317931572    2.0510529156
C        1.7676188039   -0.9061614372    2.6526979286
C        0.8706339259   -0.1813077997    1.8528038266
C        0.9201931042   -0.2911094227    0.4579934349
H        0.2238367986    0.2723219850   -0.1565537087
H        0.1363160040    0.4686378159    2.3215827035
C        1.7235761227   -0.7864501195    4.1403386036
O        2.3327034541    0.0170083868    4.7929140153
O        0.9060190170   -1.6989713153    4.7090252496
H        0.9623962400   -1.5211177032    5.6587941658
H        3.4062956809   -2.2911159302    2.6686159175
H        3.5024428147   -2.4949347867    0.1939343915
15   

H        1.9514646148   -1.2011997329   -1.2237351984
C        1.8846900118   -1.1143216442   -0.1427152061
C        2.7255967338   -1.8757491998    0.6763720576
C        2.6387926198   -1.7617487095    2.0698606993
C        1.7112838138   -0.9050314319    2.6491887415
C        0.8813308720   -0.1260151672    1.8284330120
C        0.9626089843   -0.2353230686    0.4350648339
H        0.3135593717    0.3652814581   -0.1958565984
H        0.1751522748    0.5660344485    2.2801704259
C        1.6627618949   -0.7599451383    4.1322855712
O        2.0749866191    0.1840223909    4.7509295601
O        1.1553107439   -1.8515608628    4.7458395193
H        1.1933942352   -1.6420427208    5.6901009750
H        3.2972821457   -2.3501701377    2.7037195137
H        3.4482950376   -2.5539637376    0.2316805679
15   

H        1.9884387544   -1.1981665711   -1.2223627706
C        1.8991897355   -1.1130836664   -0.1428237929
C        2.6940577247   -1.9055252266    0.6924247554
C        2.5786775198   -1.7936236373    2.0840394834
C        1.6632464380   -0.9118247996    2.6466060274
C        0.8864809493   -0.0964132609    1.8086645353
C        0.9964013785   -0.2033860576    0.4171694184
H        0.3858386403    0.4242430969   -0.2257662641
H        0.1995393801    0.6233049662    2.2471979920
C        1.5962172013   -0.7529411735    4.1231769655
O        1.7812278409    0.2768966197    4.7161987547
O        1.3883432816   -1.9219420896    4.7700343672
H        1.3885117027   -1.6850561531    5.7086982954
H        3.2045984164   -2.4055511388    2.7287754328
H        3.4041943525   -2.6057712949    0.2618749857
15   

H        2.0149317715   -1.1944357361   -1.2224247655
C        1.9110675563   -1.1123787540   -0.1439589395
C        2.6681613264   -1.9321750025    0.6994125393
C        2.5343907127   -1.8244161650    2.0897965145
C        1.6372851376   -0.9181310888    2.6452160037
C        0.8985797149   -0.0768994664    1.7970061170
C        1.0272175651   -0.1795073565    0.4069586209
H        0.4454684539    0.4694570060   -0.2415052097
H        0.2252789842    0.6605291167    2.2278618227
C        1.5411137294   -0.7595713251    4.1160844188
O        1.4896788121    0.2955801061    4.6937603843
O        1.5887096467   -1.9344690561    4.7856506825
H        1.5334177901   -1.6844641383    5.7193961494
H        3.1353329446   -2.4599817618    2.7355714584
H        3.3639673398   -2.6510262715    0.2761816470
15   

H        2.0401966182   -1.1866167079   -1.2236655081
C        1.9256940653   -1.1083637341   -0.1459942793
C        2.6489176103   -1.9537232631    0.7011597334
C        2.5017324774   -1.8517468180    2.0907549812
C        1.6270710150   -0.9213588956    2.6441673895
C        0.9177713859   -0.0597306756    1.7893952753
C        1.0602963769   -0.1566432698    0.4005045105
H        0.5019777032    0.5104155523   -0.2502097368
H        0.2537897620    0.6897961141    2.2143288665
C        1.4956788248   -0.7734899047    4.1107672385
O        1.2113706235    0.2520767369    4.6764130352
O        1.7686294745   -1.9065717164    4.7996537826
H        1.6502149696   -1.6594046534    5.7283731563
H        3.0806724543   -2.5125272926    2.7312405497
H        3.3291005370   -2.6893796212    0.2814062219
15   

H        2.0648547892   -1.1740150942   -1.2244974876
C        1.9406968280   -1.1009766575   -0.1475280362
C        2.6308867327   -1.9717979703    0.7007474153
C        2.4713770199   -1.8775965807    2.0896518253
C        1.6211151905   -0.9241232014    2.6435138155
C        0.9377967583   -0.0436200649    1.7849997369
C        1.0931464851   -0.1330592517    0.3971575339
H        0.5565644306    0.5511418991   -0.2540590585
H        0.2815478231    0.7154939260    2.2051743217
C        1.4546560578   -0.7934231178    4.1070663019
O        0.9511230189    0.1524037904    4.6606374231
O        1.9392651689   -1.8416823273    4.8143220211
H        1.7607591893   -1.6121200398    5.7380122236
H        3.0265197229   -2.5652937180    2.7226411447
H        3.2946106401   -2.7230502376    0.2822494186
15   

H        2.1248479579   -1.0886099382   -1.2217068560
C        1.9689205450   -1.0630880794   -0.1466950768
C        3.0551204026   -1.1833804315    0.7247592658
C        2.8547364967   -1.1505359610    2.1112145931
C        1.5758198306   -0.9981885517    2.6410089043
C        0.4868535504   -0.8776673930    1.7576335603
C        0.6811191705   -0.9097914869    0.3722462970
H       -0.1692853186   -0.8155217296   -0.2971323870
H       -0.5184873222   -0.7580304211    2.1557490844
C        1.3386134267   -0.9604966406    4.0999134626
O        0.2563915372   -0.8311031359    4.6169866066
O        2.4596394764   -1.0856136772    4.8494203507
H        2.1436198236   -1.0425286988    5.7637993783
H        3.7224387019   -1.2469561922    2.7588657623
H        4.0585608031   -1.3027878133    0.3261257004
