16   
torsion grid (-165,)
H        1.8140982371   -1.0717006082   -1.2188879349
C        1.8388589154   -1.0664752549   -0.1398018972
C        2.9013350161   -1.6357409489    0.5356762280
C        2.9466839713   -1.6366676351    1.9206360170
C        1.9069847261   -1.0622061737    2.6426817907
C        0.8374722656   -0.4812298317    1.9593616843
C        0.8067675775   -0.4849539786    0.5809519347
H       -0.0272283695   -0.0334592049    0.0642823582
H        0.0439288849   -0.0340740543    2.5372318280
O        1.8430521700   -1.0000360119    4.0032692127
C        2.7979960473   -1.7051070516    4.7580377555
H        2.4068251197   -1.7407397057    5.7740735223
H        3.7691732312   -1.1995775771    4.7524291862
H        2.9203153927   -2.7308017987    4.3955542759
H        3.7956224626   -2.0774928494    2.4200389820
H        3.7138352626   -2.0857577340   -0.0160847999
16   
torsion grid (-150,)
H        1.7629477031   -1.1393930685   -1.2191315972
C        1.8129712225   -1.1023230411   -0.1415883868
C        2.8926282568   -1.6511988441    0.5236470508
C        2.9691401605   -1.6103646290    1.9064150282
C        1.9450712467   -1.0203722350    2.6388265415
C        0.8619639880   -0.4559518460    1.9632658709
C        0.7993912382   -0.4978632360    0.5863972010
H       -0.0460044022   -0.0595894805    0.0768615596
H        0.0827759949    0.0095833628    2.5460664517
O        1.9174089072   -0.9132319221    3.9977056691
C        2.7889478944   -1.7066860233    4.7686837123
H        2.2799812248   -1.8876759406    5.7158081568
H        3.7404121448   -1.1956376015    4.9461880774
H        2.9790805432   -2.6742249996    4.2964868340
H        3.8351556144   -2.0269240884    2.3977994941
H        3.6938491734   -2.1141668258   -0.0339815197
16   
torsion grid (-135,)
H        1.7144774800   -1.1825511535   -1.2208897805
C        1.7885947561   -1.1272691828   -0.1454873433
C        2.8779447169   -1.6720220093    0.5077403132
C        2.9840614575   -1.6067609813    1.8873138479
C        1.9790713642   -0.9980943224    2.6311752953
C        0.8873097785   -0.4361034264    1.9676253500
C        0.7963426682   -0.5013056454    0.5929997947
H       -0.0560302075   -0.0648840079    0.0936753704
H        0.1242687671    0.0469955956    2.5575434430
O        1.9826806706   -0.8559097490    3.9870766827
C        2.7823129717   -1.7009465339    4.7838525603
H        2.1642840067   -2.0269207882    5.6229736192
H        3.6587541369   -1.1616102785    5.1530472165
H        3.1065114920   -2.5917873268    4.2426077982
H        3.8603050279   -2.0173683908    2.3661787202
H        3.6648318239   -2.1494822182   -0.0579827443
16   
torsion grid (-120,)
H        1.8094785902   -0.9781873956   -1.2325068405
C        1.8221978038   -1.0414172318   -0.1551032862
C        2.7759489323   -1.8076669273    0.4878073605
C        2.8026578287   -1.8968507067    1.8696749988
C        1.8688925115   -1.1998328598    2.6292262636
C        0.8988024165   -0.4385485526    1.9745782802
C        0.8771303446   -0.3622850328    0.5977103371
H        0.1212920275    0.2339993660    0.1083364614
H        0.1703346162    0.0835811147    2.5749199246
O        1.7700361871   -1.2267576793    3.9891215881
C        2.8765532530   -1.5742443511    4.7929417336
H        2.6240283811   -2.4571843842    5.3854811512
H        3.0616761519   -0.7422804794    5.4801729358
H        3.7824799992   -1.7576215951    4.2191504944
H        3.5451379615   -2.5269815375    2.3359544475
H        3.5090739053   -2.3537421663   -0.0880157066
16   
torsion grid (-105,)
H        1.8072603728   -1.0229429721   -1.2246784988
C        1.8186323408   -1.0667344538   -0.1462724133
C        2.7594263864   -1.8380549668    0.5095749223
C        2.7838822548   -1.9027950829    1.8929948376
C        1.8612613301   -1.1752117820    2.6367349965
C        0.9035718041   -0.4085635493    1.9712408913
C        0.8848179923   -0.3573457674    0.5931531096
H        0.1400330958    0.2428029755    0.0916590377
H        0.1848437295    0.1370734441    2.5622801834
O        1.7773929396   -1.1758609548    3.9975440789
C        2.8901339386   -1.5685221108    4.7694879801
H        2.7324684061   -2.5709841745    5.1793013076
H        2.9508831530   -0.8678091852    5.6058970686
H        3.8247488338   -1.5294184474    4.2103615962
H        3.5133225384   -2.5349964052    2.3765663894
H        3.4830417943   -2.4066569860   -0.0563953437
16   
torsion grid (-90,)
H        1.7858607995   -1.0852865635   -1.2201987799
C        1.8056633246   -1.0990269795   -0.1411302104
C        2.7489088714   -1.8564707561    0.5268353120
C        2.7859436699   -1.8834663241    1.9114870812
C        1.8709919267   -1.1330953108    2.6414569150
C        0.9117539553   -0.3782143125    1.9647300078
C        0.8820581906   -0.3637010964    0.5861923790
H        0.1363096184    0.2266997937    0.0746356472
H        0.2018542515    0.1877038400    2.5472844257
O        1.8072288997   -1.0895439778    4.0026972290
C        2.8944624543   -1.5728376575    4.7559837164
H        2.7775130085   -2.6392972802    4.9767000468
H        2.8694280692   -1.0263373001    5.7002790991
H        3.8523092273   -1.3898593189    4.2654252983
H        3.5193738515   -2.5011593510    2.4069668044
H        3.4660607922   -2.4421278239   -0.0298948283
16   
torsion grid (-75,)
H        1.7432254780   -1.1569189002   -1.2153673962
C        1.7833503340   -1.1362798840   -0.1369156884
C        2.7383480298   -1.8708417865    0.5397957919
C        2.7998697119   -1.8528625313    1.9239697816
C        1.8941308862   -1.0828352407    2.6441301900
C        0.9262279882   -0.3462059954    1.9598750068
C        0.8743661243   -0.3751775267    0.5822285051
H        0.1215623941    0.2007123775    0.0645811623
H        0.2276897650    0.2402431968    2.5357819216
O        1.8566939270   -0.9912234332    4.0041332536
C        2.8936178197   -1.5817344474    4.7485493127
H        2.7932800666   -2.6722412831    4.7793808492
H        2.7871590537   -1.1932259890    5.7614431312
H        3.8793743682   -1.3096946969    4.3617172611
H        3.5489550186   -2.4455020277    2.4259912358
H        3.4478699451   -2.4722322508   -0.0098441749
16   
torsion grid (-60,)
H        1.6886267365   -1.2330442708   -1.2091841819
C        1.7551317609   -1.1751589917   -0.1334095296
C        2.7304295347   -1.8816617282    0.5437877398
C        2.8260683112   -1.8159183177    1.9247802917
C        1.9310269082   -1.0306487849    2.6418652120
C        0.9470210490   -0.3169747155    1.9557598237
C        0.8627018569   -0.3907115279    0.5815719459
H        0.0964876547    0.1666626511    0.0633371901
H        0.2616479389    0.2878245561    2.5284767056
O        1.9275195355   -0.8886258072    3.9980602438
C        2.8839025588   -1.5926068866    4.7506865201
H        2.7925166375   -2.6745238966    4.6084389330
H        2.6785927014   -1.3480938662    5.7917225214
H        3.9031810861   -1.2792292675    4.5009384385
H        3.5992507121   -2.3777318404    2.4253219054
H        3.4316159283   -2.4955777247   -0.0027036160
16   
torsion grid (-45,)
H        1.6288729695   -1.3017895420   -1.2006172573
C        1.7246983642   -1.2109266778   -0.1293356507
C        2.7209763572   -1.8933834055    0.5419288336
C        2.8555314144   -1.7862453277    1.9169601421
C        1.9732991549   -0.9861634235    2.6342482219
C        0.9717835087   -0.2912653616    1.9541126269
C        0.8516652916   -0.4047876722    0.5853582534
H        0.0714706895    0.1369096077    0.0714104589
H        0.3018211852    0.3306952089    2.5267912690
O        2.0092436120   -0.7996587928    3.9844254034
C        2.8710290148   -1.5997694520    4.7567358305
H        2.8165106293   -2.6528008079    4.4652842267
H        2.5450972357   -1.4846564634    5.7890849301
H        3.9104291809   -1.2629438459    4.6675242575
H        3.6522432636   -2.3204922078    2.4111584954
H        3.4110490389   -2.5187422551   -0.0056198980
16   
torsion grid (-30,)
H        1.5694314032   -1.3569354021   -1.1925304493
C        1.6940912091   -1.2405911847   -0.1267386681
C        2.7087655333   -1.9084722303    0.5320019938
C        2.8796434019   -1.7674871358    1.8996212314
C        2.0158377378   -0.9539285025    2.6243945265
C        0.9997833948   -0.2707925248    1.9543803274
C        0.8432335970   -0.4146314918    0.5919247861
H        0.0508781926    0.1176103550    0.0866663414
H        0.3471958103    0.3669197443    2.5297142895
O        2.0941369994   -0.7308599370    3.9669665553
C        2.8598525836   -1.6010002129    4.7673856857
H        2.8853611098   -2.6148914826    4.3619088129
H        2.3964852228   -1.6057107012    5.7532976115
H        3.8902585090   -1.2373017549    4.8569406582
H        3.6954629473   -2.2828860839    2.3831622891
H        3.3853032587   -2.5450618736   -0.0196458478
16   
torsion grid (-15,)
H        1.5182155679   -1.3879984295   -1.1892718712
C        1.6666369700   -1.2590582037   -0.1280071253
C        2.6888627123   -1.9283470249    0.5178274350
C        2.8908485564   -1.7715263703    1.8791821490
C        2.0499180622   -0.9418892901    2.6129768926
C        1.0275188861   -0.2562901697    1.9548665914
C        0.8405120280   -0.4147769810    0.5977621717
H        0.0431246835    0.1197744006    0.1029508189
H        0.3942639995    0.3961760725    2.5352910256
O        2.1617642193   -0.6922710082    3.9484398440
C        2.8573287492   -1.5923892601    4.7819215613
H        3.0285804934   -2.5570434669    4.3032129708
H        2.2573681452   -1.7294258506    5.6826625069
H        3.8274476150   -1.1668390971    5.0605936607
H        3.7152258275   -2.2865946511    2.3490976767
H        3.3481043951   -2.5775210885   -0.0400561645
16   
torsion grid (0,)
H        1.4819866407   -1.3954431848   -1.1920890746
C        1.6452647638   -1.2662979316   -0.1330414967
C        2.6596016165   -1.9546704351    0.5051742242
C        2.8806374190   -1.7985569020    1.8635048556
C        2.0675677186   -0.9478560482    2.6045884857
C        1.0518952365   -0.2447094996    1.9536344034
C        0.8455568356   -0.4029400025    0.5993351387
H        0.0536109243    0.1467017087    0.1124208102
H        0.4391885046    0.4232875798    2.5385149466
O        2.1971671573   -0.6818539863    3.9355995949
C        2.8693901248   -1.5751257333    4.7962744228
H        3.2500586352   -2.4570861930    4.2836901939
H        2.1687013458   -1.8868299951    5.5749771128
H        3.7081592453   -1.0503928016    5.2620719324
H        3.6985583381   -2.3340501990    2.3219846025
H        3.2983764043   -2.6201967950   -0.0571900088
16   
torsion grid (15,)
H        1.6351225951   -1.2480003440   -1.2115064960
C        1.7071779121   -1.2056549191   -0.1353963812
C        2.5486962244   -2.0683832197    0.5410282980
C        2.6496276641   -2.0244810234    1.9218335185
C        1.9073380728   -1.0941527219    2.6411436047
C        1.0475385071   -0.2340182716    1.9561512870
C        0.9501821806   -0.2920697789    0.5817077445
H        0.2831517819    0.3821814099    0.0651598354
H        0.4661417936    0.4705581255    2.5298927437
O        1.9065283336   -0.9709203826    3.9988680367
C        2.9896026740   -1.4649129643    4.7549491837
H        3.8642193735   -1.6799291037    4.1401938596
H        2.6939678016   -2.3852646107    5.2704773083
H        3.2388778252   -0.7061380469    5.4979005997
H        3.2950874744   -2.7302385875    2.4228750538
H        3.1324606965   -2.7945959797   -0.0058280529
16   
torsion grid (30,)
H        2.0164699918   -0.5482120427   -1.1670951668
C        1.9560137171   -0.7667563155   -0.1118360736
C        3.0436920708   -1.3025694415    0.5510579474
C        2.9789523254   -1.5878306584    1.9052711669
C        1.8114907677   -1.3236038667    2.6127682895
C        0.7104699434   -0.7941768177    1.9379199227
C        0.7851133629   -0.5197733331    0.5886186856
H       -0.0735447523   -0.1074761845    0.0795883150
H       -0.1917969689   -0.6081487574    2.4990479836
O        1.6286863091   -1.5728893951    3.9404840790
C        2.7512268307   -1.7975138130    4.7612047059
H        3.6335076025   -1.2614517103    4.4044754737
H        2.9895466400   -2.8667458837    4.8056919036
H        2.4823409021   -1.4503971461    5.7581823006
H        3.8364256790   -2.0278757116    2.3911819365
H        3.9571264891   -1.5105993413    0.0128886739
16   
torsion grid (45,)
H        2.0016631892   -0.6273898267   -1.1794057110
C        1.9472714431   -0.8082740451   -0.1166709235
C        3.0371582253   -1.3213875512    0.5599197889
C        2.9815317440   -1.5583075626    1.9241298750
C        1.8158643491   -1.2709750856    2.6252902776
C        0.7128988584   -0.7596059898    1.9393819023
C        0.7814436368   -0.5318153019    0.5813622817
H       -0.0785119114   -0.1344083619    0.0628774640
H       -0.1852161254   -0.5503884715    2.4990805863
O        1.6412513872   -1.4653803055    3.9634870953
C        2.7564173854   -1.8071111678    4.7502142806
H        3.6261880580   -1.1880513423    4.5113524019
H        3.0270193049   -2.8610850512    4.6172604024
H        2.4580571846   -1.6421182749    5.7841317822
H        3.8444999682   -1.9726940557    2.4220970290
H        3.9481842133   -1.5470280252    0.0249416108
16   
torsion grid (60,)
H        1.9755256192   -0.7140248382   -1.1928600904
C        1.9333148694   -0.8528138054   -0.1232710651
C        3.0322239202   -1.3356976592    0.5609584361
C        2.9907472785   -1.5180032605    1.9341495814
C        1.8308016371   -1.2119613438    2.6361630045
C        0.7214265363   -0.7250862936    1.9429253568
C        0.7755109396   -0.5484440358    0.5766122398
H       -0.0901538039   -0.1709812571    0.0527192434
H       -0.1703716317   -0.4937218621    2.5038974863
O        1.6726695077   -1.3496655514    3.9835602230
C        2.7573699697   -1.8215147317    4.7434864080
H        3.6279884168   -1.1631112428    4.6559737031
H        3.0413747238   -2.8382883296    4.4519026385
H        2.4134895474   -1.8276853633    5.7766382696
H        3.8643481569   -1.8981542783    2.4404044496
H        3.9394552235   -1.5768665662    0.0261902590
16   
torsion grid (75,)
H        1.9403370154   -0.8003296416   -1.2041520251
C        1.9155297324   -0.8971572677   -0.1293947898
C        3.0273890822   -1.3479484320    0.5562409101
C        3.0080852343   -1.4761884183    1.9358161286
C        1.8552613043   -1.1531528505    2.6419188395
C        0.7349845526   -0.6921757763    1.9489945527
C        0.7685572842   -0.5665898375    0.5762091067
H       -0.1056525532   -0.2103298399    0.0516545713
H       -0.1483785761   -0.4400858509    2.5143859029
O        1.7216238488   -1.2355750162    3.9964482555
C        2.7533980772   -1.8354029709    4.7405707953
H        3.6219135913   -1.1731978760    4.8265272627
H        3.0581874648   -2.7952715238    4.3149932265
H        2.3410382467   -2.0002882026    5.7360598596
H        3.8949044242   -1.8196601196    2.4456737005
H        3.9285421814   -1.6026667949    0.0175038466
16   
torsion grid (90,)
H        1.9025460522   -0.8741933951   -1.2135591564
C        1.8959963654   -0.9356074012   -0.1359899475
C        3.0211949606   -1.3638878236    0.5423279240
C        3.0269015683   -1.4475599243    1.9251971596
C        1.8855446891   -1.1067683333    2.6422850631
C        0.7542353093   -0.6631734226    1.9557685784
C        0.7628350790   -0.5793809378    0.5794098867
H       -0.1200603013   -0.2370861374    0.0600501891
H       -0.1179795566   -0.3908931238    2.5290881610
O        1.7785287858   -1.1414654318    4.0010642568
C        2.7461214202   -1.8411978758    4.7475422975
H        3.5803954159   -1.1868432000    5.0223800534
H        3.1141744043   -2.7251873866    4.2234252976
H        2.2452401415   -2.1555325650    5.6647634707
H        3.9267616191   -1.7641720262    2.4301460063
H        3.9132849578   -1.6330714341   -0.0044490970
16   
torsion grid (105,)
H        1.8613027813   -0.9251728585   -1.2216035556
C        1.8757114705   -0.9634722780   -0.1430247400
C        3.0116695537   -1.3817304609    0.5239260765
C        3.0426514174   -1.4346667246    1.9077174352
C        1.9161288711   -1.0759548233    2.6398571474
C        0.7753878291   -0.6404564121    1.9639480899
C        0.7587410575   -0.5854241395    0.5859804673
H       -0.1321575400   -0.2496027238    0.0761735480
H       -0.0845905663   -0.3503506960    2.5469515350
O        1.8358235195   -1.0701590007    4.0008686906
C        2.7398063094   -1.8404755937    4.7609347963
H        3.4932238895   -1.1947390778    5.2225859913
H        3.2190601353   -2.6251451058    4.1758995696
H        2.1569664200   -2.3040504861    5.5607253147
H        3.9529813464   -1.7396295275    2.4015799522
H        3.8930144161   -1.6649905103   -0.0330701748
16   
torsion grid (120,)
H        1.8248266371   -0.9504258538   -1.2316309468
C        1.8564234509   -0.9795008469   -0.1531530912
C        2.9953297311   -1.4107943892    0.5002937143
C        3.0482309385   -1.4525903370    1.8836519335
C        1.9412181621   -1.0689838247    2.6333432446
C        0.7981286494   -0.6206653027    1.9688513373
C        0.7587077289   -0.5765150176    0.5909733039
H       -0.1351247975   -0.2298713508    0.0937458726
H       -0.0473913255   -0.3102882121    2.5625320107
O        1.8751929195   -1.0365180324    3.9951060269
C        2.7367988300   -1.8270742688    4.7849846684
H        3.3337248357   -1.1733018098    5.4258559384
H        3.3894344476   -2.4686700060    4.1967753805
H        2.1130768696   -2.4583782291    5.4261908405
H        3.9642059105   -1.7688584130    2.3598059276
H        3.8629379227   -1.7135845247   -0.0678760177
16   
torsion grid (135,)
H        1.9468710440   -0.7621340367   -1.2076670277
C        1.9109247981   -0.9059647049   -0.1385269411
C        2.9343114176   -1.5700496379    0.5109470227
C        2.8988587025   -1.7608973541    1.8824656024
C        1.8291127184   -1.2693785446    2.6226431788
C        0.7901310053   -0.6119051130    1.9620969184
C        0.8334659712   -0.4341458621    0.5951128112
H        0.0237836761    0.0795060195    0.0982178525
H       -0.0404869386   -0.2510571837    2.5481705001
O        1.6746392247   -1.4131762097    3.9695500872
C        2.7940871984   -1.6796490887    4.7845220862
H        2.7186272530   -1.0240859665    5.6545139951
H        3.7348439289   -1.4551005545    4.2783574770
H        2.7943962881   -2.7252858084    5.1038669373
H        3.6999480542   -2.3074635557    2.3570539142
H        3.7722065686   -1.9552328175   -0.0518742708
16   
torsion grid (150,)
H        1.9361054690   -0.8261395195   -1.2092783473
C        1.9026872952   -0.9400192164   -0.1364826889
C        2.9240841808   -1.5942916956    0.5254374038
C        2.8934582478   -1.7472780486    1.9021094324
C        1.8296626758   -1.2291526141    2.6322597599
C        0.7935504963   -0.5797137437    1.9593743980
C        0.8323509020   -0.4382347801    0.5882736073
H        0.0250868385    0.0690213656    0.0809076194
H       -0.0306107360   -0.1955383997    2.5396166734
O        1.6881183246   -1.3280323592    3.9846591883
C        2.8028788265   -1.6814870924    4.7694746552
H        2.6599165252   -1.2003579595    5.7374238936
H        3.7353390102   -1.3061159324    4.3395133357
H        2.8721553429   -2.7663627708    4.8967843134
H        3.6938068269   -2.2826328126    2.3897576964
H        3.7571306848   -1.9996848398   -0.0303807971
16   
torsion grid (165,)
H        1.9060478104   -0.9053550755   -1.2136555163
C        1.8860874316   -0.9810347531   -0.1371141666
C        2.9153180905   -1.6104439789    0.5364718353
C        2.9033803111   -1.7150042163    1.9181721758
C        1.8446844961   -1.1749102612    2.6391378392
C        0.8020076240   -0.5453864397    1.9573450028
C        0.8255003512   -0.4510646584    0.5820189374
H        0.0133074236    0.0398732002    0.0665900876
H       -0.0141117442   -0.1390722240    2.5339307668
O        1.7218408007   -1.2193169539    3.9963730582
C        2.8066440071   -1.6894659007    4.7585282703
H        2.6015472014   -1.3884800711    5.7851518561
H        3.7492944733   -1.2311228263    4.4427169428
H        2.8959639774   -2.7792765876    4.7027446543
H        3.7149553283   -2.2234215963    2.4154493858
H        3.7432533279   -2.0325380761   -0.0144109860
16   
torsion grid (180,)
H        1.8633433078   -0.9902580551   -1.2179758792
C        1.8637758486   -1.0244467745   -0.1391307087
C        2.9085626514   -1.6233143117    0.5383132770
C        2.9214243104   -1.6740043466    1.9231311689
C        1.8716275951   -1.1163649748    2.6436705083
C        0.8171235203   -0.5118334254    1.9574675090
C        0.8163285662   -0.4680285148    0.5793404078
H       -0.0058616545    0.0027947273    0.0609832403
H        0.0111100224   -0.0843820891    2.5329844566
O        1.7754420895   -1.1060246483    4.0038833045
C        2.8050196594   -1.6986728280    4.7559583991
H        2.5185254556   -1.5731821545    5.7991075994
H        3.7663051067   -1.2031965285    4.5839193126
H        2.9021411593   -2.7667490017    4.5347511647
H        3.7509239744   -2.1482875515    2.4241505672
H        3.7299292980   -2.0600699415   -0.0111041839
