15   

H        1.8844840222   -1.1974110655   -1.1372589491
C        1.8989262293   -1.1491072435   -0.0516467178
C        2.9606303177   -1.7132787714    0.6606461890
C        2.9827075234   -1.6488139377    2.0589067373
C        1.9377003691   -1.0273810557    2.7676382632
C        0.8787647215   -0.4514119257    2.0340868214
C        0.8609363449   -0.5150086194    0.6358011619
H        0.0425694480   -0.0641615337    0.0808542182
H        0.0688495192    0.0724087843    2.5336910891
C        1.9680897212   -0.9741908872    4.2380961931
O        2.9986689886   -1.1458832446    4.8281131912
O        0.8177008376   -0.7689023661    4.9117254249
H        0.0392105000   -0.8750360873    4.3499263529
H        3.8160621453   -2.0885547808    2.6033532108
H        3.7727308861   -2.2015688755    0.1292295617
15   

H        1.8836722684   -1.2629962131   -1.1392468997
C        1.8975130999   -1.2018916660   -0.0542876691
C        2.9496614197   -1.7733263754    0.6666800241
C        2.9716342980   -1.6911765315    2.0642052364
C        1.9362441142   -1.0429523699    2.7629972314
C        0.8870039576   -0.4610350700    2.0206423716
C        0.8685941952   -0.5432183756    0.6235270001
H        0.0576317164   -0.0865549680    0.0625075662
H        0.0863574744    0.0823219528    2.5150184307
C        1.9669692172   -0.9570638609    4.2318026208
O        2.9798986341   -1.1865614993    4.8318058916
O        0.8201798788   -0.6788194542    4.8963881059
H        0.0378185925   -0.9607088413    4.4072844056
H        3.7987832746   -2.1346415120    2.6149666039
H        3.7551672269   -2.2796947934    0.1422473065
15   

H        1.8958474154   -1.3125068045   -1.1453677430
C        1.9057400027   -1.2419764238   -0.0609631688
C        2.9499783636   -1.8156592176    0.6699166103
C        2.9671775481   -1.7205215018    2.0668717628
C        1.9351405141   -1.0554392325    2.7547952262
C        0.8935598530   -0.4730678924    2.0023556701
C        0.8794329865   -0.5687191428    0.6062337165
H        0.0740215449   -0.1107281632    0.0383787765
H        0.0955356834    0.0802673682    2.4903534066
C        1.9609908645   -0.9456829309    4.2222495775
O        2.9519525252   -1.2278115673    4.8353835352
O        0.8187592339   -0.5923984266    4.8733959186
H        0.0425716754   -1.0278574338    4.5047499681
H        3.7891123152   -2.1644857228    2.6248651205
H        3.7535251220   -2.3330168992    0.1533414041
15   

H        1.9219861969   -1.3338992271   -1.1566116191
C        1.9244087810   -1.2605633587   -0.0723839256
C        2.9607640548   -1.8366224043    0.6679743258
C        2.9681707880   -1.7376288779    2.0649088893
C        1.9345630256   -1.0648764176    2.7430505343
C        0.9005091955   -0.4818426791    1.9810001771
C        0.8957459731   -0.5817012221    0.5852589575
H        0.0954023359   -0.1228534766    0.0110257418
H        0.0999448311    0.0732134778    2.4631308231
C        1.9493363838   -0.9460740059    4.2102333606
O        2.9157964688   -1.2750075839    4.8379326195
O        0.8161977537   -0.5119863117    4.8460295134
H        0.0570666120   -1.0666835643    4.6424416260
H        3.7843999429   -2.1830176669    2.6299481855
H        3.7659091628   -2.3585309267    0.1586066710
15   

H        1.9614652397   -1.3224286882   -1.1733844480
C        1.9526743010   -1.2536160552   -0.0889324039
C        2.9803825746   -1.8339624170    0.6601873776
C        2.9726500908   -1.7413366204    2.0576715328
C        1.9329504452   -1.0694559723    2.7274538418
C        0.9072916134   -0.4834488554    1.9565384250
C        0.9172735266   -0.5772435158    0.5605040246
H        0.1222462513   -0.1165674002   -0.0195395207
H        0.0997833613    0.0659359344    2.4336926428
C        1.9291472176   -0.9585095122    4.1957072780
O        2.8728462897   -1.3253088097    4.8365547622
O        0.8133990387   -0.4410092316    4.8144934309
H        0.0849154923   -1.0676539482    4.8165609711
H        3.7819506847   -2.1906281440    2.6293853925
H        3.7902695743   -2.3546150050    0.1571876139
15   

H        2.0124680416   -1.2864549880   -1.1912260598
C        1.9887868857   -1.2287767959   -0.1063859515
C        3.0061200783   -1.8165343817    0.6511121755
C        2.9781725833   -1.7393992051    2.0493696865
C        1.9290790124   -1.0744416149    2.7116035671
C        0.9137002288   -0.4819049959    1.9321022631
C        0.9434637780   -0.5606401868    0.5354837024
H        0.1549024606   -0.0960621278   -0.0501632901
H        0.0962684868    0.0569017501    2.4044494920
C        1.8997871848   -0.9847667810    4.1816034081
O        2.8238412094   -1.3846559978    4.8327016725
O        0.8135931305   -0.3839986397    4.7813436128
H        0.1343853978   -1.0226276622    5.0130069205
H        3.7788261953   -2.1957537185    2.6274541165
H        3.8230991528   -2.3317351647    0.1541012182
15   

H        2.0645207514   -1.2497793251   -1.2060674844
C        2.0244742276   -1.2045340730   -0.1211522711
C        3.0313971784   -1.7988708679    0.6450825538
C        2.9814348339   -1.7388858802    2.0436502875
C        1.9210719298   -1.0834277697    2.6976861815
C        0.9160201807   -0.4850749429    1.9090873704
C        0.9674228900   -0.5470976627    0.5123207066
H        0.1854490959   -0.0791654386   -0.0793890651
H        0.0874568263    0.0417531369    2.3755845186
C        1.8644636305   -1.0161122555    4.1688072952
O        2.7727895320   -1.4447172497    4.8270557774
O        0.8119089140   -0.3497498152    4.7476210989
H        0.2118246188   -0.9482730340    5.2015791505
H        3.7735155049   -2.2016820408    2.6282177459
H        3.8568871882   -2.3066950288    0.1546816938
15   

H        2.1054636581   -1.2293134683   -1.2160851794
C        2.0505487851   -1.1936005900   -0.1314905940
C        3.0484531385   -1.7918659535    0.6434522635
C        2.9786947565   -1.7449667573    2.0417457073
C        1.9079338108   -1.0974927951    2.6870041697
C        0.9117511593   -0.4960061832    1.8893576042
C        0.9825270743   -0.5455169834    0.4929999042
H        0.2063030919   -0.0760356754   -0.1049737813
H        0.0733165984    0.0209184790    2.3493629609
C        1.8283876185   -1.0446254665    4.1582480503
O        2.7179557128   -1.5064188120    4.8231435473
O        0.8069598146   -0.3320784798    4.7179659736
H        0.3143662119   -0.8554760994    5.3592634566
H        3.7635669945   -2.2116496796    2.6327669322
H        3.8820123176   -2.2931000910    0.1600463849
15   

H        2.1395107419   -1.2160491839   -1.2221904150
C        2.0722391718   -1.1858919940   -0.1381392563
C        3.0670564179   -1.7782277902    0.6453619921
C        2.9811093898   -1.7386658013    2.0430524236
C        1.8969739451   -1.1044933514    2.6790795252
C        0.9035609440   -0.5098786707    1.8727678338
C        0.9907007982   -0.5516385399    0.4771425432
H        0.2161003218   -0.0875740242   -0.1271111965
H        0.0537561857   -0.0056928357    2.3261863412
C        1.7990665535   -1.0595178949    4.1496603314
O        2.6824184080   -1.5241133775    4.8236025509
O        0.7732467616   -0.3583028982    4.6950932323
H        0.4261062690   -0.8001900064    5.4800685747
H        3.7633097595   -2.2012038771    2.6407306632
H        3.9105168554   -2.2695173782    0.1690294843
15   

H        2.1597711703   -1.2033958883   -1.2262336807
C        2.0832737546   -1.1788239092   -0.1426622675
C        3.0755155878   -1.7681122364    0.6464388801
C        2.9774436080   -1.7359831213    2.0435512082
C        1.8837197492   -1.1121794238    2.6732774595
C        0.8926070068   -0.5213399720    1.8614183556
C        0.9918911295   -0.5555248296    0.4664158699
H        0.2186560216   -0.0946653955   -0.1420083870
H        0.0346216002   -0.0271824531    2.3105994413
C        1.7732893668   -1.0739759448    4.1431246634
O        2.6438080444   -1.5545251973    4.8245058725
O        0.7399032048   -0.3917489861    4.6808940055
H        0.5371981302   -0.7272174910    5.5654997440
H        3.7573437334   -2.1965554547    2.6456725877
H        3.9261458297   -2.2515675847    0.1748891898
15   

H        2.1789669929   -1.1891784152   -1.2286798497
C        2.0952161290   -1.1693738170   -0.1455524364
C        3.0879684243   -1.7519977488    0.6479201450
C        2.9803166299   -1.7262605983    2.0444847716
C        1.8762593914   -1.1158456126    2.6690379263
C        0.8843834543   -0.5322792594    1.8529576983
C        0.9934516044   -0.5596209638    0.4585602222
H        0.2193253966   -0.1046446257   -0.1531446267
H        0.0177767944   -0.0501304088    2.2987463095
C        1.7556163487   -1.0842057432    4.1380139996
O        2.6168335977   -1.5726145196    4.8267461092
O        0.6983563091   -0.4452919620    4.6712270085
H        0.6316778721   -0.6531536498    5.6154453424
H        3.7600927862   -2.1822250824    2.6502288005
H        3.9461103555   -2.2257388378    0.1801524605
15   

H        2.1947374829   -1.1718992264   -1.2287321866
C        2.1059674105   -1.1574189467   -0.1459220249
C        3.1015893537   -1.7322258059    0.6496946458
C        2.9872789087   -1.7136385692    2.0458615094
C        1.8733664117   -1.1187168402    2.6677320591
C        0.8783520525   -0.5435259034    1.8495567176
C        0.9943766156   -0.5631388576    0.4556082718
H        0.2175954395   -0.1149158296   -0.1577180367
H        0.0034216768   -0.0748250619    2.2934684231
C        1.7453979085   -1.0948666235    4.1361303246
O        2.6008502046   -1.5892391563    4.8282333557
O        0.6573499088   -0.5109972470    4.6661220628
H        0.6999389110   -0.5653211222    5.6333332705
H        3.7687698894   -2.1642751404    2.6533678795
H        3.9668079691   -2.1948617709    0.1838598993
15   

H        2.2009817363   -1.1492786908   -1.2274092156
C        2.1103879528   -1.1418749874   -0.1446768503
C        3.1112074343   -1.7098791311    0.6492615112
C        2.9944052499   -1.7007245385    2.0452978587
C        1.8725224010   -1.1226137296    2.6688219777
C        0.8719829734   -0.5547477359    1.8522414838
C        0.9908370550   -0.5643552692    0.4584089364
H        0.2096729600   -0.1221333500   -0.1537022533
H       -0.0099697998   -0.1004094694    2.2971439133
C        1.7418525834   -1.1091454935    4.1372193448
O        2.5956212908   -1.6110535645    4.8255198551
O        0.6233568342   -0.5811941972    4.6668987331
H        0.7380839982   -0.4603478616    5.6215896631
H        3.7795790108   -2.1469072993    2.6513534674
H        3.9821290193   -2.1604604477    0.1822316677
15   

H        2.2026974614   -1.1256019700   -1.2237546299
C        2.1119329535   -1.1268852064   -0.1410068259
C        3.1182427181   -1.6906779721    0.6489068253
C        3.0011356862   -1.6930447266    2.0449202918
C        1.8732983894   -1.1310636371    2.6726769190
C        0.8668927584   -0.5679396768    1.8599345739
C        0.9863267817   -0.5656083289    0.4660952773
H        0.2005683196   -0.1274451326   -0.1430522322
H       -0.0207105283   -0.1274575910    2.3074054834
C        1.7425057022   -1.1297618481    4.1413487381
O        2.5948292523   -1.6432847721    4.8216789977
O        0.5999696414   -0.6453359559    4.6728183693
H        0.7515957899   -0.3386902404    5.5778783972
H        3.7903770302   -2.1366877546    2.6475812189
H        3.9934772779   -2.1295437367    0.1787777971
15   

H        2.2024820523   -1.1019447534   -1.2185554047
C        2.1119019555   -1.1140241879   -0.1358499187
C        3.1223019320   -1.6781171303    0.6485532606
C        3.0053600938   -1.6947199117    2.0444542542
C        1.8737104291   -1.1466523622    2.6777359121
C        0.8627478107   -0.5838449747    1.8704087735
C        0.9821268773   -0.5671851238    0.4766447246
H        0.1928262157   -0.1297633537   -0.1284594212
H       -0.0290774939   -0.1558087308    2.3213993864
C        1.7438508674   -1.1595768666    4.1464720475
O        2.5897002815   -1.6921276373    4.8182492012
O        0.5891191364   -0.6919566598    4.6844649821
H        0.7563617458   -0.2017551547    5.4991357891
H        3.7976015035   -2.1390585205    2.6427141486
H        4.0004580052   -2.1065314041    0.1742255836
15   

H        2.1953604680   -1.0663994745   -1.2108955303
C        2.1066645525   -1.0919050778   -0.1282510973
C        3.1239636335   -1.6550203861    0.6478125045
C        3.0094439879   -1.6892382472    2.0435218939
C        1.8734309289   -1.1600177416    2.6850123318
C        0.8549388811   -0.5989633379    1.8860767839
C        0.9721562466   -0.5643122680    0.4924000726
H        0.1772346176   -0.1287174116   -0.1066538697
H       -0.0417704493   -0.1876476559    2.3427171371
C        1.7466811696   -1.1926938506    4.1535312613
O        2.5937540428   -1.7314971790    4.8159724646
O        0.5843044840   -0.7355723178    4.7051138892
H        0.7466948565   -0.0720224771    5.3842213722
H        3.8068011731   -2.1332937978    2.6352647865
H        4.0054382646   -2.0694194168    0.1671736233
15   

H        2.1905470390   -1.0213894560   -1.1987904208
C        2.1017203537   -1.0645476371   -0.1166910360
C        3.1207554284   -1.6369325813    0.6502436876
C        3.0057329311   -1.6948549770    2.0450558731
C        1.8682747081   -1.1791166229    2.6946407338
C        0.8474451617   -0.6093590527    1.9051303806
C        0.9649104387   -0.5516576524    0.5121771778
H        0.1680541176   -0.1106978650   -0.0803922388
H       -0.0525491323   -0.2119852122    2.3675035303
C        1.7415560525   -1.2388603941    4.1617148102
O        2.5707986420   -1.8107868799    4.8154003260
O        0.6010662935   -0.7318610651    4.7354519092
H        0.7746081666    0.0716806668    5.2340629708
H        3.8038327157   -2.1467418808    2.6299713701
H        4.0036888960   -2.0406520277    0.1631592601
15   

H        2.1933762252   -0.9585905876   -1.1807851900
C        2.1027720448   -1.0221963567   -0.0998084023
C        3.1220287721   -1.6064681318    0.6578006290
C        3.0042607953   -1.6921137178    2.0508729288
C        1.8645690895   -1.1913459947    2.7078768342
C        0.8429079989   -0.6101945036    1.9280131490
C        0.9629529573   -0.5253136749    0.5366063188
H        0.1652586412   -0.0772871654   -0.0495678250
H       -0.0614269920   -0.2288817798    2.3953440515
C        1.7335516212   -1.2860274488    4.1720040923
O        2.5470794022   -1.8862187993    4.8167186007
O        0.6300193536   -0.7166803774    4.7707449260
H        0.8012632659    0.1859191574    5.0515072455
H        3.8016585881   -2.1543687587    2.6287693692
H        4.0068315133   -1.9987528727    0.1647049594
15   

H        2.1960975216   -0.8972126132   -1.1598417876
C        2.1040380154   -0.9793072151   -0.0801963773
C        3.1227974738   -1.5758708072    0.6684074324
C        3.0027441527   -1.6868036051    2.0594079398
C        1.8620047242   -1.1980375619    2.7233572303
C        0.8401403471   -0.6051544923    1.9526601349
C        0.9623431660   -0.4955716687    0.5631036808
H        0.1643417510   -0.0402861447   -0.0171119756
H       -0.0679747174   -0.2380994303    2.4240060082
C        1.7266546409   -1.3254933139    4.1840171593
O        2.5229916889   -1.9593575847    4.8163591587
O        0.6772039887   -0.6878346228    4.8066287560
H        0.8181736138    0.2612559474    4.8588873728
H        3.7989617486   -2.1598050915    2.6303669541
H        4.0085889964   -1.9589615331    0.1697896493
15   

H        2.1842829221   -0.8585723168   -1.1414698087
C        2.0943903901   -0.9525372589   -0.0625705315
C        3.1143840084   -1.5582449522    0.6768465856
C        2.9970430139   -1.6853290365    2.0665809676
C        1.8585848639   -1.2025978741    2.7386678595
C        0.8345066102   -0.6014891621    1.9771893273
C        0.9539585013   -0.4762353623    0.5886179010
H        0.1545034732   -0.0157802340    0.0144335104
H       -0.0748370188   -0.2435735338    2.4530368098
C        1.7265393064   -1.3498761132    4.1973771368
O        2.5034087052   -2.0224237029    4.8141474954
O        0.7378277358   -0.6540267079    4.8415011394
H        0.8070926336    0.2927333846    4.6857291610
H        3.7938457027   -2.1659224647    2.6305011944
H        3.9988837382   -1.9363387534    0.1720616257
15   

H        2.1519447633   -0.8483882278   -1.1305823350
C        2.0684015967   -0.9471898428   -0.0515714599
C        3.0908363105   -1.5603861664    0.6780506842
C        2.9819741576   -1.6937072687    2.0677287919
C        1.8505823303   -1.2086847286    2.7499158873
C        0.8228014585   -0.6013052900    1.9982718954
C        0.9337146072   -0.4703486640    0.6093680506
H        0.1321163200   -0.0054480678    0.0417324381
H       -0.0838840976   -0.2448963000    2.4799960739
C        1.7320799397   -1.3605367496    4.2090372779
O        2.4827995999   -2.0780554326    4.8083043997
O        0.8064534336   -0.6146942322    4.8726871738
H        0.7703461006    0.2910990003    4.5467632775
H        3.7807968411   -2.1795566449    2.6243887230
H        3.9708247754   -1.9392092847    0.1658889381
15   

H        2.1034276212   -0.8647326904   -1.1265611168
C        2.0299442955   -0.9618849108   -0.0466428254
C        3.0549655267   -1.5824815474    0.6727592897
C        2.9596143830   -1.7129569908    2.0635117528
C        1.8403923087   -1.2166608324    2.7574640314
C        0.8086373406   -0.6030556312    2.0161181699
C        0.9059068408   -0.4755944500    0.6256805768
H        0.1022852305   -0.0056275872    0.0650845868
H       -0.0911835807   -0.2394321020    2.5047689422
C        1.7446312744   -1.3600023303    4.2189677666
O        2.4629322401   -2.1234549509    4.8019628397
O        0.8796504269   -0.5710367319    4.8998210819
H        0.7136785513    0.2641547569    4.4462994831
H        3.7609915124   -2.2031279448    2.6127856753
H        3.9269207281   -1.9684241416    0.1521628033
15   

H        2.0483713302   -0.9004104912   -1.1277967633
C        1.9860112331   -0.9912924121   -0.0466180286
C        3.0102237618   -1.6234078497    0.6635123059
C        2.9298569611   -1.7445982448    2.0558591826
C        1.8278833374   -1.2264036213    2.7613005388
C        0.7957474824   -0.6018673409    2.0292944953
C        0.8776480533   -0.4847292770    0.6367658160
H        0.0748297800   -0.0057049712    0.0827151623
H       -0.0926450624   -0.2202695850    2.5243672397
C        1.7595380070   -1.3521456080    4.2260588572
O        2.4386596347   -2.1607815522    4.7957903969
O        0.9540626887   -0.5217672158    4.9195987469
H        0.6435407285    0.2201966115    4.3848134531
H        3.7315661997   -2.2416883382    2.5984802550
H        3.8706036633   -2.0242028403    0.1348839053
15   

H        1.9917913120   -0.9392916442   -1.1330658596
C        1.9428054676   -1.0198662096   -0.0503771966
C        2.9616869419   -1.6703964968    0.6501049038
C        2.8991580716   -1.7770340604    2.0443351523
C        1.8214338757   -1.2257538475    2.7626950601
C        0.7944338004   -0.5812689259    2.0399399742
C        0.8580567728   -0.4798260821    0.6450023868
H        0.0601673116    0.0153254899    0.0980784220
H       -0.0754946507   -0.1674586258    2.5406505440
C        1.7842938436   -1.3319329438    4.2312348889
O        2.4463763271   -2.1623277464    4.7902588936
O        1.0071194014   -0.4880788124    4.9361972834
H        0.5258321485    0.1307977126    4.3713620098
H        3.6984683419   -2.2865865011    2.5789348795
H        3.8049747248   -2.0954893330    0.1129514543
