15   

H        2.1271734993   -1.0610760434   -1.2209000564
C        1.9701880092   -1.0475306083   -0.1458256007
C        3.0517400113   -1.2090819721    0.7250415195
C        2.8496035073   -1.1921327329    2.1114852719
C        1.5750217493   -1.0076583079    2.6408529889
C        0.4892273846   -0.8565668025    1.7591057591
C        0.6850900393   -0.8725848090    0.3736022000
H       -0.1620525658   -0.7512160359   -0.2955417272
H       -0.5139387162   -0.7261740455    2.1592543590
C        1.3363139185   -1.0078945632    4.1002347776
O        0.2532049108   -1.1124393342    4.6203504509
O        2.4619676930   -0.8943820756    4.8444944961
H        2.1477969612   -0.9106866085    5.7603535111
H        3.7100954614   -1.3264421414    2.7621010033
H        4.0522035611   -1.3500578597    0.3259820578
15   

H        2.1246472700   -1.0335677432   -1.2187905071
C        1.9683865278   -1.0309926619   -0.1435297986
C        3.0460703650   -1.2339597057    0.7240858380
C        2.8439185366   -1.2315988433    2.1105081007
C        1.5758451323   -1.0141948099    2.6412102956
C        0.4920431685   -0.8312814272    1.7648197003
C        0.6874089087   -0.8324312797    0.3789792044
H       -0.1568539702   -0.6835924315   -0.2882414732
H       -0.5072725661   -0.6894836343    2.1703958493
C        1.3412519635   -1.0533571554    4.1018528964
O        0.3073808204   -1.3862309155    4.6242305881
O        2.4261711355   -0.7149005231    4.8376100761
H        2.1290455012   -0.7916138085    5.7560133956
H        3.6941522613   -1.4007106329    2.7666543578
H        4.0421658649   -1.3970849994    0.3225687189
15   

H        2.1177430611   -1.0081098395   -1.2164901219
C        1.9639218431   -1.0165902125   -0.1409080577
C        3.0381700327   -1.2616045020    0.7207711800
C        2.8382667866   -1.2736982318    2.1073376471
C        1.5785392440   -1.0245961847    2.6418248852
C        0.4961126146   -0.8062937251    1.7737735820
C        0.6889138506   -0.7926179178    0.3874299102
H       -0.1526155002   -0.6144557426   -0.2760297364
H       -0.4981077368   -0.6504706391    2.1861041432
C        1.3535862452   -1.0994281784    4.1052591957
O        0.4186322885   -1.6454844608    4.6319319426
O        2.3541332043   -0.5472845139    4.8298364307
H        2.0881519457   -0.6791137499    5.7514194560
H        3.6787827115   -1.4750821913    2.7669420379
H        4.0284889268   -1.4467075117    0.3145410614
15   

H        2.1067586642   -0.9837344769   -1.2155328109
C        1.9581488609   -1.0062315460   -0.1394204084
C        3.0296469207   -1.2973336392    0.7117965583
C        2.8360211088   -1.3272371152    2.0988945858
C        1.5870224546   -1.0499659896    2.6422061447
C        0.5058384144   -0.7862552586    1.7866920624
C        0.6923813449   -0.7543645078    0.3996199454
H       -0.1466354309   -0.5407648748   -0.2565031791
H       -0.4808956857   -0.6098538546    2.2079200302
C        1.3771912808   -1.1498826846    4.1105338262
O        0.5893811345   -1.8830960933    4.6473983084
O        2.2370565688   -0.3838098991    4.8190275549
H        2.0116247529   -0.5557817248    5.7446684878
H        3.6699107226   -1.5622608975    2.7556354865
H        4.0120815175   -1.5040915668    0.2969651319
15   

H        2.0896327055   -0.9507973424   -1.2157594785
C        1.9514566059   -0.9933203591   -0.1388611424
C        3.0217367948   -1.3390518173    0.6934669536
C        2.8415329041   -1.3943200049    2.0815640886
C        1.6068408550   -1.0943136274    2.6431597313
C        0.5275817621   -0.7671176406    1.8080125581
C        0.7008671151   -0.7096805311    0.4199555081
H       -0.1361631698   -0.4497554593   -0.2218172767
H       -0.4463828829   -0.5603790801    2.2442918373
C        1.4183718898   -1.2028539988    4.1181781231
O        0.8236936331   -2.0837055336    4.6786978889
O        2.0538753725   -0.2230826105    4.7977098408
H        1.8716579395   -0.4128183494    5.7292542877
H        3.6732220261   -1.6688499407    2.7254210190
H        3.9926306921   -1.5674593465    0.2631027413
15   

H        2.0780869224   -0.9098245691   -1.2148585838
C        1.9525835654   -0.9734704962   -0.1374504883
C        3.0178275894   -1.3854871282    0.6707002886
C        2.8537545594   -1.4680159714    2.0594546257
C        1.6377601395   -1.1415041076    2.6452017903
C        0.5679591767   -0.7298467871    1.8353318186
C        0.7247767477   -0.6452630527    0.4467129480
H       -0.1065117854   -0.3263706980   -0.1756232086
H       -0.3858864995   -0.4777535565    2.2914383585
C        1.4730089987   -1.2405544486    4.1258747246
O        1.1012532053   -2.2147593928    4.7218263265
O        1.7928660916   -0.0917309743    4.7602209354
H        1.6470277951   -0.2803551333    5.6983165663
H        3.6824125207   -1.7907055225    2.6845548117
H        3.9726394216   -1.6427916996    0.2210765817
15   

H        2.0619300027   -0.8790494689   -1.2142884160
C        1.9514688776   -0.9557138127   -0.1360818940
C        3.0114372378   -1.4250709787    0.6471003785
C        2.8664447572   -1.5247666222    2.0368281587
C        1.6710777304   -1.1693990617    2.6487218174
C        0.6126023805   -0.6836220094    1.8642054616
C        0.7500734133   -0.5820558768    0.4747114220
H       -0.0749029601   -0.2118188253   -0.1272486992
H       -0.3175967764   -0.3865710231    2.3416221148
C        1.5383119488   -1.2544280516    4.1318157707
O        1.4097146879   -2.2666544531    4.7662480239
O        1.5123008536   -0.0369476105    4.7172106880
H        1.4075065129   -0.2213765657    5.6616543991
H        3.6920747484   -1.8895828737    2.6426977164
H        3.9478265395   -1.7126185123    0.1774794261
15   

H        2.0487282465   -0.8846210534   -1.2172488904
C        1.9501732788   -0.9588595793   -0.1377204806
C        3.0022849985   -1.4686811778    0.6303329508
C        2.8726607065   -1.5653425127    2.0217252364
C        1.6979208442   -1.1710126480    2.6518016138
C        0.6503152136   -0.6382454282    1.8810806512
C        0.7728985225   -0.5398082958    0.4900044824
H       -0.0447275861   -0.1354385616   -0.0998981941
H       -0.2602933586   -0.3018335550    2.3702923974
C        1.5964290045   -1.2427548451    4.1339544843
O        1.7085418184   -2.2410864406    4.7950790157
O        1.2701426450   -0.0543671892    4.6902017735
H        1.2142076924   -0.2364199178    5.6393665279
H        3.6927049529   -1.9612305330    2.6159929714
H        3.9210358542   -1.7898441778    0.1478198239
15   

H        2.0333481626   -0.9131400354   -1.2227800220
C        1.9445722897   -0.9746812137   -0.1416053996
C        2.9880041138   -1.5117233190    0.6193108888
C        2.8713850995   -1.5919213787    2.0127836059
C        1.7174240984   -1.1528007744    2.6543384806
C        0.6776825163   -0.5944718175    1.8881686759
C        0.7885130219   -0.5127327594    0.4950170116
H       -0.0224195513   -0.0880493500   -0.0898372411
H       -0.2191297418   -0.2253042100    2.3794632469
C        1.6441545613   -1.2154775829    4.1344176728
O        1.9849076384   -2.1537229375    4.8074671940
O        1.0718749156   -0.1194488348    4.6837195285
H        1.0708119217   -0.2971130728    5.6354745219
H        3.6854929576   -2.0098006724    2.6006347407
H        3.8902879157   -1.8671374301    0.1297716551
15   

H        2.0177215431   -0.9530385881   -1.2296521038
C        1.9381291720   -0.9963333044   -0.1468787862
C        2.9725888672   -1.5530640929    0.6115626651
C        2.8683765349   -1.6096800419    2.0070876944
C        1.7361895746   -1.1234446828    2.6558132027
C        0.7023971152   -0.5507017743    1.8890972584
C        0.8022461354   -0.4928421558    0.4939286893
H       -0.0027079544   -0.0551390820   -0.0896011410
H       -0.1835729134   -0.1515383637    2.3766152319
C        1.6838699788   -1.1792633719    4.1339537702
O        2.2303402313   -2.0124054923    4.8120087637
O        0.9059726572   -0.2185083132    4.6851733936
H        0.9568710890   -0.3830073692    5.6380260806
H        3.6777040673   -2.0441232130    2.5899185189
H        3.8587785249   -1.9425880025    0.1185777708
15   

H        1.9967624057   -0.9985488038   -1.2355066771
C        1.9271955857   -1.0218994206   -0.1514282934
C        2.9532646153   -1.5945606687    0.6058808607
C        2.8626774277   -1.6251127168    2.0031200482
C        1.7537231703   -1.0925346466    2.6572694761
C        0.7245635796   -0.5100195757    1.8889142563
C        0.8119452935   -0.4783032314    0.4920856434
H        0.0122841029   -0.0302802593   -0.0909041294
H       -0.1498626433   -0.0810753733    2.3718313612
C        1.7167859944   -1.1395533839    4.1348693982
O        2.4373567390   -1.8226228019    4.8195694351
O        0.7649311870   -0.3497072246    4.6851519015
H        0.8588005664   -0.4876087278    5.6390228094
H        3.6683853160   -2.0734524104    2.5805920337
H        3.8229864691   -2.0170558794    0.1107122978
15   

H        1.9716838161   -1.0475018930   -1.2388639949
C        1.9132133627   -1.0499015151   -0.1538816189
C        2.9316319771   -1.6363231851    0.6029275458
C        2.8559176633   -1.6392787990    2.0013721641
C        1.7711758701   -1.0614683951    2.6583320889
C        0.7462428352   -0.4710201767    1.8892632615
C        0.8193502586   -0.4666599325    0.4912754692
H        0.0247347068   -0.0093774862   -0.0914311734
H       -0.1134980061   -0.0118416568    2.3706635283
C        1.7452535820   -1.0947464362    4.1362315885
O        2.6010901807   -1.5895811598    4.8276185173
O        0.6531705533   -0.5093032219    4.6816360778
H        0.7779856555   -0.6089903890    5.6367401856
H        3.6566943186   -2.0997823866    2.5761517996
H        3.7841533884   -2.0910886655    0.1064278048
15   

H        1.9428083686   -1.0963257693   -1.2386207580
C        1.8962409079   -1.0779958100   -0.1532147416
C        2.9074102838   -1.6776606847    0.6032335816
C        2.8472829559   -1.6530115717    2.0022310415
C        1.7877701653   -1.0308317694    2.6592356365
C        0.7669194406   -0.4332575650    1.8913605165
C        0.8243409774   -0.4558363245    0.4928024429
H        0.0346412309    0.0102407234   -0.0896116506
H       -0.0752432475    0.0541578283    2.3761403713
C        1.7680236527   -1.0466950957    4.1378279895
O        2.7114770644   -1.3258307833    4.8353945750
O        0.5776514694   -0.6891163116    4.6743416122
H        0.7186257255   -0.7416483510    5.6309317249
H        3.6406252448   -2.1237622561    2.5789886818
H        3.7419411963   -2.1639322704    0.1060331017
15   

H        1.9153640567   -1.1385420056   -1.2355605134
C        1.8803414058   -1.1010627047   -0.1502144158
C        2.8824905122   -1.7163504512    0.6063618081
C        2.8371716160   -1.6662333475    2.0052864486
C        1.8045831785   -0.9994947031    2.6597614547
C        0.7894773117   -0.3928857867    1.8941242406
C        0.8314071546   -0.4399934270    0.4956122949
H        0.0476218089    0.0360741425   -0.0866954678
H       -0.0337941411    0.1199069033    2.3852615596
C        1.7840533419   -0.9976994261    4.1397371598
O        2.7616547916   -1.0494982360    4.8426783265
O        0.5419984152   -0.8781429228    4.6641638898
H        0.6825570357   -0.8801503564    5.6221921125
H        3.6205535826   -2.1476980888    2.5866194738
H        3.6978777636   -2.2341903156    0.1092897877
15   

H        1.8897885431   -1.1733116879   -1.2310667838
C        1.8653335178   -1.1182843749   -0.1461792389
C        2.8555595855   -1.7517523774    0.6116652841
C        2.8236111673   -1.6785019759    2.0100256110
C        1.8194261163   -0.9679417384    2.6602269800
C        0.8133159935   -0.3486615863    1.8959988793
C        0.8408644543   -0.4178541837    0.4980397503
H        0.0649308719    0.0702588058   -0.0847937753
H        0.0095145128    0.1890701587    2.3926628054
C        1.7934632355   -0.9448832003    4.1430370010
O        2.7502839752   -0.7666230362    4.8516483970
O        0.5468180476   -1.0710146187    4.6534115603
H        0.6708104411   -1.0220399399    5.6123853069
H        3.5954065034   -2.1730652141    2.5954338628
H        3.6506068943   -2.3015120183    0.1159354924
15   

H        1.8737394034   -1.2017562463   -1.2273502454
C        1.8548440772   -1.1316265922   -0.1432234876
C        2.8264986663   -1.7872614474    0.6201856268
C        2.8015836751   -1.6941567534    2.0176222523
C        1.8244835839   -0.9416422295    2.6591073548
C        0.8359084005   -0.3018935380    1.8917938339
C        0.8555569043   -0.3900063758    0.4947757579
H        0.0933598037    0.1148179602   -0.0919272926
H        0.0524911150    0.2650286167    2.3883476371
C        1.7910699962   -0.8900048866    4.1451899715
O        2.6770102737   -0.4859195492    4.8509845332
O        0.5974157333   -1.2735575582    4.6513677205
H        0.6959092440   -1.1757370795    5.6094469619
H        3.5577835588   -2.2057505956    2.6082045988
H        3.6011895764   -2.3695059751    0.1293567075
15   

H        1.8759942721   -1.2160236147   -1.2250215959
C        1.8528325042   -1.1344743583   -0.1417757169
C        2.7940656057   -1.8190166455    0.6345525924
C        2.7635605273   -1.7112254378    2.0308891714
C        1.8088804705   -0.9196584023    2.6566764989
C        0.8545996423   -0.2450485488    1.8781747243
C        0.8795040399   -0.3474881521    0.4821827667
H        0.1425634071    0.1822970300   -0.1146954803
H        0.0943203361    0.3599500787    2.3653999918
C        1.7699864762   -0.8345619914    4.1451889787
O        2.5399579867   -0.2183024690    4.8314923067
O        0.7111690333   -1.4888468336    4.6709640177
H        0.7857288082   -1.3482298136    5.6257611235
H        3.4961621458   -2.2446379603    2.6313886732
H        3.5494041426   -2.4346844412    0.1544805055
15   

H        1.9106464584   -1.2132797001   -1.2245240928
C        1.8684754035   -1.1259017713   -0.1423056305
C        2.7633788888   -1.8466282244    0.6560121876
C        2.7082077333   -1.7317931572    2.0510529156
C        1.7676188039   -0.9061614372    2.6526979286
C        0.8706339226   -0.1813077957    1.8528038360
C        0.9201930845   -0.2911094170    0.4579934481
H        0.2238367630    0.2723219929   -0.1565536761
H        0.1363160070    0.4686378238    2.3215827131
C        1.7235761227   -0.7864501195    4.1403386036
O        2.3327034541    0.0170083868    4.7929140153
O        0.9060190021   -1.6989712974    4.7090252551
H        0.9623962344   -1.5211176772    5.6587941703
H        3.4062956872   -2.2911159295    2.6686159110
H        3.5024428047   -2.4949347701    0.1939343803
15   

H        1.9514645901   -1.2011996949   -1.2237351996
C        1.8846899994   -1.1143216190   -0.1427152069
C        2.7255967208   -1.8757491874    0.6763720507
C        2.6387926198   -1.7617487095    2.0698606993
C        1.7112838138   -0.9050314319    2.6491887415
C        0.8813308638   -0.1260151632    1.8284330201
C        0.9626089739   -0.2353230452    0.4350648418
H        0.3135593669    0.3652814938   -0.1958565840
H        0.1751522646    0.5660344492    2.2801704379
C        1.6627618949   -0.7599451383    4.1322855712
O        2.0749866191    0.1840223909    4.7509295601
O        1.1553107203   -1.8515608488    4.7458395242
H        1.1933946078   -1.6420428690    5.6901009998
H        3.2972821446   -2.3501701473    2.7037195055
H        3.4482950092   -2.5539637294    0.2316805391
15   

H        1.9884389807   -1.1981662921   -1.2223627705
C        1.8991898937   -1.1130834737   -0.1428237904
C        2.6940577900   -1.9055251380    0.6924247500
C        2.5786775198   -1.7936236373    2.0840394834
C        1.6632464380   -0.9118247996    2.6466060274
C        0.8864810286   -0.0964131724    1.8086645469
C        0.9964015419   -0.2033858659    0.4171694311
H        0.3858388777    0.4242433737   -0.2257662391
H        0.1995394699    0.6233050578    2.2471980159
C        1.5962172013   -0.7529411735    4.1231769655
O        1.7812278409    0.2768966197    4.7161987547
O        1.3883431925   -1.9219420770    4.7700343617
H        1.3885121406   -1.6850562275    5.7086983112
H        3.2045983728   -2.4055511941    2.7287754220
H        3.4041944031   -2.6057712128    0.2618749681
15   

H        2.0149318262   -1.1944357160   -1.2224247707
C        1.9110675966   -1.1123787444   -0.1439589460
C        2.6681613454   -1.9321750036    0.6994125403
C        2.5343907127   -1.8244161650    2.0897965145
C        1.6372851376   -0.9181310888    2.6452160037
C        0.8985797285   -0.0768994635    1.7970061039
C        1.0272176008   -0.1795073488    0.4069586088
H        0.4454685017    0.4694570159   -0.2415052307
H        0.2252789913    0.6605291245    2.2278617927
C        1.5411137294   -0.7595713251    4.1160844188
O        1.4896788121    0.2955801061    4.6937603843
O        1.5887095859   -1.9344690557    4.7856506832
H        1.5334181720   -1.6844640961    5.7193961664
H        3.1353329279   -2.4599817727    2.7355714628
H        3.3639673544   -2.6510262794    0.2761816506
15   

H        2.0401966634   -1.1866166739   -1.2236655097
C        1.9256940974   -1.1083637107   -0.1459942798
C        2.6489176336   -1.9537232467    0.7011597343
C        2.5017324774   -1.8517468180    2.0907549812
C        1.6270710150   -0.9213588956    2.6441673895
C        0.9177714019   -0.0597306632    1.7893952742
C        1.0602964027   -0.1566432509    0.4005045098
H        0.5019777368    0.5104155830   -0.2502097322
H        0.2537897917    0.6897961431    2.2143288617
C        1.4956788248   -0.7734899047    4.1107672385
O        1.2113706235    0.2520767369    4.6764130352
O        1.7686294493   -1.9065717225    4.7996537844
H        1.6502152131   -1.6594045862    5.7283731741
H        3.0806724432   -2.5125272999    2.7312405520
H        3.3291005737   -2.6893795969    0.2814062283
15   

H        2.0648546744   -1.1740151098   -1.2244974835
C        1.9406967433   -1.1009766753   -0.1475280294
C        2.6308866947   -1.9717979687    0.7007474072
C        2.4713770199   -1.8775965807    2.0896518253
C        1.6211151905   -0.9241232014    2.6435138155
C        0.9377967087   -0.0436200923    1.7849997539
C        1.0931463894   -0.1330592873    0.3971575506
H        0.5565642942    0.5511418391   -0.2540590361
H        0.2815477559    0.7154938673    2.2051743666
C        1.4546560578   -0.7934231178    4.1070663019
O        0.9511230189    0.1524037904    4.6606374231
O        1.9392651673   -1.8416823280    4.8143220237
H        1.7607592966   -1.6121199876    5.7380122352
H        3.0265197466   -2.5652937052    2.7226411378
H        3.2946105979   -2.7230502234    0.2822493820
15   

H        2.1248479311   -1.0886096765   -1.2217068652
C        1.9689205305   -1.0630879020   -0.1466950806
C        3.0551203864   -1.1833803489    0.7247592553
C        2.8547364967   -1.1505359610    2.1112145931
C        1.5758198306   -0.9981885517    2.6410089043
C        0.4868535512   -0.8776673239    1.7576335714
C        0.6811191619   -0.9097913206    0.3722463048
H       -0.1692853287   -0.8155214852   -0.2971323619
H       -0.5184873147   -0.7580303522    2.1557491043
C        1.3386134267   -0.9604966406    4.0999134626
O        0.2563915372   -0.8311031359    4.6169866066
O        2.4596394783   -1.0856136392    4.8494203508
H        2.1436198232   -1.0425286129    5.7637993718
H        3.7224387044   -1.2469562471    2.7588657524
H        4.0585607763   -1.3027877355    0.3261256682
