15   

H        1.8844835939   -1.1974117402   -1.1372589219
C        1.8989258948   -1.1491077937   -0.0516466977
C        2.9606301571   -1.7132790333    0.6606461829
C        2.9827074803   -1.6488140344    2.0589067249
C        1.9377002666   -1.0273812780    2.7676382700
C        0.8787644472   -0.4514124273    2.0340868477
C        0.8609359517   -0.5150092905    0.6358012007
H        0.0425689125   -0.0641624268    0.0808542853
H        0.0688491905    0.0724082017    2.5336911117
C        1.9680897212   -0.9741908872    4.2380961931
O        2.9986689886   -1.1458832446    4.8281131912
O        0.8177008376   -0.7689023661    4.9117254249
H        0.0392105000   -0.8750360873    4.3499263529
H        3.8160622446   -2.0885546404    2.6033531714
H        3.7727307688   -2.2015690413    0.1292295356
15   

H        1.8836720775   -1.2629969687   -1.1392468683
C        1.8975129238   -1.2018923383   -0.0542876427
C        2.9496612518   -1.7733269889    0.6666800890
C        2.9716341591   -1.6911770089    2.0642052985
C        1.9362440005   -1.0429527558    2.7629972483
C        0.8870038222   -0.4610355444    2.0206423425
C        0.8685940287   -0.5432189892    0.6235269798
H        0.0576315439   -0.0865556276    0.0625075154
H        0.0863573597    0.0823215548    2.5150183498
C        1.9669692172   -0.9570638609    4.2318026208
O        2.9798986341   -1.1865614993    4.8318058916
O        0.8201798788   -0.6788194542    4.8963881059
H        0.0378185925   -0.9607088413    4.4072844056
H        3.7987831503   -2.1346419240    2.6149666956
H        3.7551670464   -2.2796954532    0.1422473956
15   

H        1.8958470461   -1.3125083269   -1.1453676366
C        1.9057396585   -1.2419777544   -0.0609630731
C        2.9499780201   -1.8156604312    0.6699168008
C        2.9671772593   -1.7205224196    2.0668719359
C        1.9351402866   -1.0554399376    2.7547952842
C        0.8935595941   -0.4730687656    2.0023556358
C        0.8794326730   -0.5687203186    0.6062337034
H        0.0740212396   -0.1107294151    0.0383786921
H        0.0955354796    0.0802666676    2.4903532688
C        1.9609908645   -0.9456829309    4.2222495775
O        2.9519525252   -1.2278115673    4.8353835352
O        0.8187592339   -0.5923984266    4.8733959186
H        0.0425716754   -1.0278574338    4.5047499681
H        3.7891120566   -2.1644865031    2.6248653603
H        3.7535247655   -2.3330182160    0.1533416774
15   

H        1.9219856760   -1.3339008554   -1.1566115076
C        1.9244082980   -1.2605648008   -0.0723838269
C        2.9607635594   -1.8366237738    0.6679745022
C        2.9681703751   -1.7376299444    2.0649090474
C        1.9345627102   -1.0648772342    2.7430505979
C        0.9005088681   -0.4818436137    1.9810001558
C        0.8957455629   -0.5817024640    0.5852589594
H        0.0954019521   -0.1228547473    0.0110256813
H        0.0999446139    0.0732127902    2.4631307030
C        1.9493363838   -0.9460740059    4.2102333606
O        2.9157964688   -1.2750075839    4.8379326195
O        0.8161977537   -0.5119863117    4.8460295134
H        0.0570666120   -1.0666835643    4.6424416260
H        3.7843995729   -2.1830186012    2.6299483869
H        3.7659086189   -2.3585324267    0.1586069037
15   

H        1.9614645159   -1.3224310574   -1.1733842884
C        1.9526736411   -1.2536180930   -0.0889322658
C        2.9803820592   -1.8339640577    0.6601876224
C        2.9726496989   -1.7413377624    2.0576717452
C        1.9329500279   -1.0694570200    2.7274539175
C        0.9072910353   -0.4834503360    1.9565383869
C        0.9172728288   -0.5772454799    0.5605040206
H        0.1222454642   -0.1165696225   -0.0195396094
H        0.0997828085    0.0659345990    2.4336924732
C        1.9291472176   -0.9585095122    4.1957072780
O        2.8728462897   -1.3253088097    4.8365547622
O        0.8133990387   -0.4410092316    4.8144934309
H        0.0849154923   -1.0676539482    4.8165609711
H        3.7819504758   -2.1906288593    2.6293856783
H        3.7902691097   -2.3546166661    0.1571879613
15   

H        2.0124665248   -1.2864577221   -1.1912259336
C        1.9887855875   -1.2287791415   -0.1063858408
C        3.0061188582   -1.8165365706    0.6511123021
C        2.9781716836   -1.7394008217    2.0493697903
C        1.9290783657   -1.0744427943    2.7116036261
C        0.9136994823   -0.4819063697    1.9321023005
C        0.9434627047   -0.5606421414    0.5354837665
H        0.1549013517   -0.0960641659   -0.0501632451
H        0.0962679892    0.0569007988    2.4044494774
C        1.8997871848   -0.9847667810    4.1816034081
O        2.8238412094   -1.3846559978    4.8327016725
O        0.8135931305   -0.3839986397    4.7813436128
H        0.1343853978   -1.0226276622    5.0130069205
H        3.7788254186   -2.1957551090    2.6274542259
H        3.8230977839   -2.3317376147    0.1541013703
15   

H        2.0645192539   -1.2497817819   -1.2060674360
C        2.0244729528   -1.2045361725   -0.1211522289
C        3.0313960604   -1.7988727079    0.6450825907
C        2.9814340387   -1.7388871942    2.0436503128
C        1.9210713026   -1.0834288111    2.6976862056
C        0.9160193701   -0.4850762807    1.9090873966
C        0.9674217620   -0.5470995201    0.5123207446
H        0.1854478714   -0.0791674583   -0.0793890270
H        0.0874561765    0.0417520693    2.3755845262
C        1.8644636305   -1.0161122555    4.1688072952
O        2.7727895320   -1.4447172497    4.8270557774
O        0.8119089140   -0.3497498152    4.7476210989
H        0.2118246188   -0.9482730340    5.2015791505
H        3.7735148956   -2.2016830560    2.6282177597
H        3.8568859737   -2.3066970272    0.1546817276
15   

H        2.1054626780   -1.2293150124   -1.2160851752
C        2.0505479292   -1.1936019398   -0.1314905884
C        3.0484523936   -1.7918671248    0.6434522632
C        2.9786941990   -1.7449676336    2.0417457058
C        1.9079333432   -1.0974935270    2.6870041736
C        0.9117505618   -0.4960071181    1.8893576150
C        0.9825262867   -0.5455182253    0.4929999145
H        0.2063022454   -0.0760370150   -0.1049737717
H        0.0733161076    0.0209177138    2.3493629775
C        1.8283876185   -1.0446254665    4.1582480503
O        2.7179557128   -1.5064188120    4.8231435473
O        0.8069598146   -0.3320784798    4.7179659736
H        0.3143662119   -0.8554760994    5.3592634566
H        3.7635665674   -2.2116503551    2.6327669191
H        3.8820115394   -2.2931013103    0.1600463777
15   

H        2.1395100748   -1.2160506799   -1.2221904040
C        2.0722385773   -1.1858932710   -0.1381392466
C        3.0670559833   -1.7782287336    0.6453620448
C        2.9811090837   -1.7386664116    2.0430524707
C        1.8969736082   -1.1044939657    2.6790795273
C        0.9035604264   -0.5098796492    1.8727677977
C        0.9907001591   -0.5516398429    0.4771425067
H        0.2160995784   -0.0875755649   -0.1271112780
H        0.0537556633   -0.0056937914    2.3261862723
C        1.7990665535   -1.0595178949    4.1496603314
O        2.6824184080   -1.5241133775    4.8236025509
O        0.7732467616   -0.3583028982    4.6950932323
H        0.4261062690   -0.8001900064    5.4800685747
H        3.7633096219   -2.2012041558    2.6407307444
H        3.9105164717   -2.2695182818    0.1690295842
15   

H        2.1597702181   -1.2033967701   -1.2262337433
C        2.0832729610   -1.1788246723   -0.1426623194
C        3.0755149906   -1.7681127739    0.6464387552
C        2.9774432518   -1.7359834714    2.0435511020
C        1.8837194176   -1.1121798260    2.6732774402
C        0.8926064508   -0.5213406405    1.8614184043
C        0.9918903577   -0.5555256503    0.4664159072
H        0.2186551105   -0.0946663633   -0.1420082885
H        0.0346210446   -0.0271831713    2.3105995431
C        1.7732893668   -1.0739759448    4.1431246634
O        2.6438080444   -1.5545251973    4.8245058725
O        0.7399032048   -0.3917489861    4.6808940055
H        0.5371981302   -0.7272174910    5.5654997440
H        3.7573435664   -2.1965555600    2.6456724266
H        3.9261452235   -2.2515680559    0.1748889873
15   

H        2.1789667322   -1.1891785274   -1.2286798659
C        2.0952159077   -1.1693739357   -0.1455524485
C        3.0879682461   -1.7519978419    0.6479200982
C        2.9803165021   -1.7262606985    2.0444847284
C        1.8762592775   -1.1158457329    2.6690379211
C        0.8843832895   -0.5322794133    1.8529577284
C        0.9934513909   -0.5596211114    0.4585602492
H        0.2193251575   -0.1046447814   -0.1531445730
H        0.0177766345   -0.0501305770    2.2987463676
C        1.7556163487   -1.0842057432    4.1380139996
O        2.6168335977   -1.5726145196    4.8267461092
O        0.6983563091   -0.4452919620    4.6712270085
H        0.6316778721   -0.6531536498    5.6154453424
H        3.7600927001   -2.1822251476    2.6502287303
H        3.9461101828   -2.2257388939    0.1801523884
15   

H        2.1947375964   -1.1718993610   -1.2287321708
C        2.1059674868   -1.1574190754   -0.1459220106
C        3.1015893642   -1.7322259948    0.6496947000
C        2.9872788822   -1.7136387239    2.0458615583
C        1.8733664182   -1.1187169003    2.6677320670
C        0.8783521066   -0.5435259370    1.8495566925
C        0.9943767088   -0.5631389233    0.4556082516
H        0.2175955728   -0.1149158651   -0.1577180833
H        0.0034217446   -0.0748250465    2.2934683700
C        1.7453979085   -1.0948666235    4.1361303246
O        2.6008502046   -1.5892391563    4.8282333557
O        0.6573499088   -0.5109972470    4.6661220628
H        0.6999389110   -0.5653211222    5.6333332705
H        3.7687698086   -2.1642753421    2.6533679658
H        3.9668079605   -2.1948620331    0.1838599980
15   

H        2.2009821182   -1.1492781825   -1.2274091855
C        2.1103882543   -1.1418745728   -0.1446768272
C        3.1112077486   -1.7098786549    0.6492615615
C        2.9944054695   -1.7007241813    2.0452978988
C        1.8725225183   -1.1226135483    2.6688219883
C        0.8719830736   -0.5547476215    1.8522414694
C        0.9908372401   -0.5643550395    0.4584089289
H        0.2096731245   -0.1221331858   -0.1537022788
H       -0.0099697904   -0.1004095144    2.2971438796
C        1.7418525834   -1.1091454935    4.1372193448
O        2.5956212908   -1.6110535645    4.8255198551
O        0.6233568342   -0.5811941972    4.6668987331
H        0.7380839982   -0.4603478616    5.6215896631
H        3.7795792356   -2.1469069082    2.6513535312
H        3.9821294177   -2.1604598385    0.1822317478
15   

H        2.2026977233   -1.1256012244   -1.2237546162
C        2.1119331936   -1.1268845536   -0.1410068129
C        3.1182429565   -1.6906773590    0.6489068113
C        3.0011358778   -1.6930442740    2.0449202768
C        1.8732985417   -1.1310632846    2.6726769281
C        0.8668929285   -0.5679392495    1.8599346069
C        0.9863269921   -0.5656077630    0.4660953131
H        0.2005685338   -0.1274445391   -0.1430521795
H       -0.0207103981   -0.1274572455    2.3074055219
C        1.7425057022   -1.1297618481    4.1413487381
O        2.5948292523   -1.6432847721    4.8216789977
O        0.5999696414   -0.6453359559    4.6728183693
H        0.7515957899   -0.3386902404    5.5778783972
H        3.7903771977   -2.1366873886    2.6475811746
H        3.9934775379   -2.1295430496    0.1787777577
15   

H        2.2024825978   -1.1019435812   -1.2185553518
C        2.1119024290   -1.1140231722   -0.1358498720
C        3.1223022816   -1.6781163623    0.6485532887
C        3.0053603311   -1.6947193848    2.0444542708
C        1.8737106810   -1.1466518221    2.6777359394
C        0.8627481924   -0.5838441719    1.8704088232
C        0.9821273676   -0.5671840899    0.4766447839
H        0.1928267889   -0.1297621665   -0.1284593570
H       -0.0290771291   -0.1558079658    2.3213994383
C        1.7438508674   -1.1595768666    4.1464720475
O        2.5897002815   -1.6921276373    4.8182492012
O        0.5891191364   -0.6919566598    4.6844649821
H        0.7563617458   -0.2017551547    5.4991357891
H        3.7976016044   -2.1390582511    2.6427141552
H        4.0004583333   -2.1065306733    0.1742256072
15   

H        2.1953611609   -1.0663978116   -1.2108954325
C        2.1066651713   -1.0919036167   -0.1282510104
C        3.1239641839   -1.6550190990    0.6478125556
C        3.0094444106   -1.6892372860    2.0435219262
C        1.8734312847   -1.1600169505    2.6850123815
C        0.8549393253   -0.5989623329    1.8860768725
C        0.9721568211   -0.5643109295    0.4924001800
H        0.1772352346   -0.1287159594   -0.1066537368
H       -0.0417700804   -0.1876468337    2.3427172396
C        1.7466811696   -1.1926938506    4.1535312613
O        2.5937540428   -1.7314971790    4.8159724646
O        0.5843044840   -0.7355723178    4.7051138892
H        0.7466948565   -0.0720224771    5.3842213722
H        3.8068014985   -2.1332930598    2.6352647824
H        4.0054388318   -2.0694180680    0.1671736539
15   

H        2.1905480840   -1.0213875175   -1.1987902540
C        2.1017212744   -1.0645459147   -0.1166908890
C        3.1207562025   -1.6369311325    0.6502438239
C        3.0057335095   -1.6948538829    2.0450559797
C        1.8682752174   -1.1791156501    2.6946408160
C        0.8474458495   -0.6093577478    1.9051304718
C        0.9649113291   -0.5516559745    0.5121773029
H        0.1680551128   -0.1106960013   -0.0803921184
H       -0.0525485243   -0.2119840484    2.3675035850
C        1.7415560525   -1.2388603941    4.1617148102
O        2.5707986420   -1.8107868799    4.8154003260
O        0.6010662935   -0.7318610651    4.7354519092
H        0.7746081666    0.0716806668    5.2340629708
H        3.8038331291   -2.1467410903    2.6299714661
H        4.0036896752   -2.0406505810    0.1631594063
15   

H        2.1933777859   -0.9585880269   -1.1807848974
C        2.1027733745   -1.0221941641   -0.0998081515
C        3.1220299469   -1.6064661774    0.6578009069
C        3.0042616330   -1.6921122977    2.0508731466
C        1.8645697429   -1.1913448818    2.7078769645
C        0.8429088265   -0.6101931248    1.9280132512
C        0.9629541178   -0.5253117614    0.5366064840
H        0.1652598957   -0.0772851132   -0.0495676829
H       -0.0614263451   -0.2288807261    2.3953440687
C        1.7335516212   -1.2860274488    4.1720040923
O        2.5470794022   -1.8862187993    4.8167186007
O        0.6300193536   -0.7166803774    4.7707449260
H        0.8012632659    0.1859191574    5.0515072455
H        3.8016592449   -2.1543676387    2.6287695943
H        4.0068327944   -1.9987507529    0.1647052954
15   

H        2.1960992339   -0.8972100104   -1.1598414182
C        2.1040394704   -0.9793049988   -0.0801960598
C        3.1227987474   -1.5758688542    0.6684077885
C        3.0027450585   -1.6868022030    2.0594082232
C        1.8620054269   -1.1980364731    2.7233573930
C        0.8401412513   -0.6051531095    1.9526602548
C        0.9623444447   -0.4955697202    0.5631038825
H        0.1643431489   -0.0402840240   -0.0171118008
H       -0.0679740069   -0.2380983605    2.4240059991
C        1.7266546409   -1.3254933139    4.1840171593
O        2.5229916889   -1.9593575847    4.8163591587
O        0.6772039887   -0.6878346228    4.8066287560
H        0.8181736138    0.2612559474    4.8588873728
H        3.7989624638   -2.1598039807    2.6303672599
H        4.0085903840   -1.9589594081    0.1697900736
15   

H        2.1842845331   -0.8585706419   -1.1414695008
C        2.0943917538   -0.9525357980   -0.0625702630
C        3.1143852238   -1.5582435889    0.6768469812
C        2.9970438678   -1.6853280151    2.0665813008
C        1.8585855033   -1.2025970943    2.7386680021
C        0.8345074236   -0.6014882473    1.9771893448
C        0.9539596710   -0.4762341114    0.5886179817
H        0.1545047455   -0.0157789412    0.0144334818
H       -0.0748363936   -0.2435728772    2.4530366633
C        1.7265393064   -1.3498761132    4.1973771368
O        2.5034087052   -2.0224237029    4.8141474954
O        0.7378277358   -0.6540267079    4.8415011394
H        0.8070926336    0.2927333846    4.6857291610
H        3.7938464004   -2.1659216094    2.6305016067
H        3.9988850984   -1.9363372458    0.1720621682
15   

H        2.1519459233   -0.8483869153   -1.1305821275
C        2.0684025800   -0.9471887149   -0.0515712823
C        3.0908371212   -1.5603852663    0.6780509148
C        2.9819747209   -1.6937066494    2.0677289814
C        1.8505828051   -1.2086841681    2.7499159791
C        0.8228021229   -0.6013044792    1.9982719267
C        0.9337155252   -0.4703475652    0.6093681321
H        0.1321173640   -0.0054467995    0.0417324796
H       -0.0838835196   -0.2448955636    2.4799959975
C        1.7320799397   -1.3605367496    4.2090372779
O        2.4827995999   -2.0780554326    4.8083043997
O        0.8064534336   -0.6146942322    4.8726871738
H        0.7703461006    0.2910990003    4.5467632775
H        3.7807972392   -2.1795562633    2.6243889418
H        3.9708256271   -1.9392083751    0.1658892305
15   

H        2.1034282000   -0.8647319603   -1.1265610112
C        2.0299447980   -0.9618842754   -0.0466427334
C        3.0549659098   -1.5824811023    0.6727593910
C        2.9596146632   -1.7129566883    2.0635118373
C        1.8403925844   -1.2166604974    2.7574640835
C        0.8086377463   -0.6030550849    2.0161182123
C        0.9059073601   -0.4755937501    0.6256806451
H        0.1022858434   -0.0056267290    0.0650846541
H       -0.0911831879   -0.2394315279    2.5047689399
C        1.7446312744   -1.3600023303    4.2189677666
O        2.4629322401   -2.1234549509    4.8019628397
O        0.8796504269   -0.5710367319    4.8998210819
H        0.7136785513    0.2641547569    4.4462994831
H        3.7609916800   -2.2031278203    2.6127857647
H        3.9269210903   -1.9684237581    0.1521629171
15   

H        2.0483718684   -0.9004099738   -1.1277967066
C        1.9860116882   -0.9912919638   -0.0466179829
C        3.0102241136   -1.6234075331    0.6635123829
C        2.9298571933   -1.7445980333    2.0558592462
C        1.8278835459   -1.2264034002    2.7613005591
C        0.7957478142   -0.6018669524    2.0292944790
C        0.8776485029   -0.4847287837    0.6367658162
H        0.0748303094   -0.0057043749    0.0827151362
H       -0.0926447429   -0.2202691578    2.5243671695
C        1.7595380070   -1.3521456080    4.2260588572
O        2.4386596347   -2.1607815522    4.7957903969
O        0.9540626887   -0.5217672158    4.9195987469
H        0.6435407285    0.2201966115    4.3848134531
H        3.7315663463   -2.2416882372    2.5984803410
H        3.8706040193   -2.0242025565    0.1348840139
15   

H        1.9917912851   -0.9392916389   -1.1330658689
C        1.9428054405   -1.0198662276   -0.0503772086
C        2.9616868079   -1.6703967159    0.6501048660
C        2.8991579513   -1.7770342695    2.0443351173
C        1.8214338652   -1.2257538710    2.7626950515
C        0.7944338762   -0.5812687923    2.0399399810
C        0.8580568425   -0.4798259338    0.6450023959
H        0.0601674467    0.0153257699    0.0980784511
H       -0.0754945103   -0.1674583764    2.5406505611
C        1.7842938436   -1.3319329438    4.2312348889
O        2.4463763271   -2.1623277464    4.7902588936
O        1.0071194014   -0.4880788124    4.9361972834
H        0.5258321485    0.1307977126    4.3713620098
H        3.6984681486   -2.2865868443    2.5789348281
H        3.8049745026   -2.0954897085    0.1129513984
