15   

H        1.8844851266   -1.1974006790   -1.1372593847
C        1.8989273409   -1.1490983390   -0.0516470884
C        2.9606315380   -1.7132706890    0.6606449852
C        2.9827086251   -1.6488080178    2.0589056186
C        1.9377012472   -1.0273765644    2.7676380806
C        0.8787655605   -0.4514064282    2.0340875047
C        0.8609373072   -0.5150009530    0.6358017284
H        0.0425702642   -0.0641533622    0.0808554167
H        0.0688500310    0.0724129865    2.5336925945
C        1.9680897212   -0.9741908872    4.2380961931
O        2.9986689886   -1.1458832446    4.8281131912
O        0.8177008376   -0.7689023661    4.9117254249
H        0.0392105000   -0.8750360873    4.3499263529
H        3.8160631330   -2.0885498643    2.6033514635
H        3.7727321570   -2.2015599723    0.1292276790
15   

H        1.8836763605   -1.2629745413   -1.1392482184
C        1.8975168808   -1.2018731438   -0.0542888053
C        2.9496651222   -1.7733097751    0.6666774495
C        2.9716372908   -1.6911645010    2.0642029153
C        1.9362464868   -1.0429431555    2.7629966327
C        0.8870065717   -0.4610235672    2.0206432753
C        0.8685975296   -0.5432022737    0.6235275878
H        0.0576350024   -0.0865376009    0.0625092655
H        0.0863593062    0.0823308594    2.5150209108
C        1.9669692172   -0.9570638609    4.2318026208
O        2.9798986341   -1.1865614993    4.8318058916
O        0.8201798788   -0.6788194542    4.8963881059
H        0.0378185925   -0.9607088413    4.4072844056
H        3.7987857759   -2.1346317038    2.6149632429
H        3.7551711641   -2.2796765565    0.1422434999
15   

H        1.8958551705   -1.3124750382   -1.1453700460
C        1.9057470594   -1.2419491771   -0.0609651712
C        2.9499850531   -1.8156349039    0.6699127879
C        2.9671828480   -1.7205038288    2.0668683713
C        1.9351447773   -1.0554255101    2.7547941218
C        0.8935647515   -0.4730506667    2.0023564655
C        0.8794392939   -0.5686952391    0.6062339970
H        0.0740279476   -0.1107023444    0.0383804814
H        0.0955393134    0.0802808629    2.4903563422
C        1.9609908645   -0.9456829309    4.2222495775
O        2.9519525252   -1.2278115673    4.8353835352
O        0.8187592339   -0.5923984266    4.8733959186
H        0.0425716754   -1.0278574338    4.5047499681
H        3.7891166345   -2.1644714872    2.6248604511
H        3.7535321897   -2.3329903842    0.1533359528
15   

H        1.9220001079   -1.3338566920   -1.1566148567
C        1.9244211181   -1.2605268992   -0.0723867488
C        2.9607754664   -1.8365899176    0.6679696620
C        2.9681795081   -1.7376053190    2.0649048323
C        1.9345699310   -1.0648581247    2.7430489694
C        0.9005174124   -0.4818196554    1.9810005324
C        0.8957568992   -0.5816692334    0.5852586147
H        0.0954136921   -0.1228189218    0.0110268675
H        0.0999510169    0.0732314912    2.4631335543
C        1.9493363838   -0.9460740059    4.2102333606
O        2.9157964688   -1.2750075839    4.8379326195
O        0.8161977537   -0.5119863117    4.8460295134
H        0.0570666120   -1.0666835643    4.6424416260
H        3.7844069959   -2.1829987486    2.6299428888
H        3.7659213787   -2.3584955057    0.1586002562
15   

H        1.9614855146   -1.3223792111   -1.1733878071
C        1.9526920938   -1.2535735135   -0.0889353436
C        2.9803988503   -1.8339244071    0.6601829683
C        2.9726623394   -1.7413089232    2.0576677513
C        1.9329600846   -1.0694344226    2.7274522056
C        0.9073032874   -0.4834218272    1.9565383150
C        0.9172892420   -0.5772061298    0.5605032051
H        0.1222627773   -0.1165271213   -0.0195391401
H        0.0997922684    0.0659570545    2.4336946274
C        1.9291472176   -0.9585095122    4.1957072780
O        2.8728462897   -1.3253088097    4.8365547622
O        0.8133990387   -0.4410092316    4.8144934309
H        0.0849154923   -1.0676539482    4.8165609711
H        3.7819605842   -2.1906058756    2.6293806736
H        3.7902870977   -2.3545736406    0.1571817306
15   

H        2.0124930271   -1.2864046968   -1.1912284713
C        1.9888086583   -1.2287334603   -0.1063880655
C        3.0061396250   -1.8164959015    0.6511092588
C        2.9781870873   -1.7393711608    2.0493672263
C        1.9290905436   -1.0744195158    2.7116024037
C        0.9137145867   -0.4818770181    1.9321019286
C        0.9434831889   -0.5606017403    0.5354828636
H        0.1549231976   -0.0960205729   -0.0501634369
H        0.0962797984    0.0569239336    2.4044504774
C        1.8997871848   -0.9847667810    4.1816034081
O        2.8238412094   -1.3846559978    4.8327016725
O        0.8135931305   -0.3839986397    4.7813436128
H        0.1343853978   -1.0226276622    5.0130069205
H        3.7788377343   -2.1957314824    2.6274511728
H        3.8231201412   -2.3316935698    0.1540974370
15   

H        2.0645459723   -1.2497355901   -1.2060685637
C        2.0244960941   -1.2044963060   -0.1211532255
C        3.0314166645   -1.7988373311    0.6450814397
C        2.9814491802   -1.7388613820    2.0436493782
C        1.9210833301   -1.0834083843    2.6976856699
C        0.9160345266   -0.4850504056    1.9090870120
C        0.9674423951   -0.5470640556    0.5123201302
H        0.1854700825   -0.0791291314   -0.0793894583
H        0.0874682137    0.0417726235    2.3755846059
C        1.8644636305   -1.0161122555    4.1688072952
O        2.7727895320   -1.4447172497    4.8270557774
O        0.8119089140   -0.3497498152    4.7476210989
H        0.2118246188   -0.9482730340    5.2015791505
H        3.7735268959   -2.2016626878    2.6282167604
H        3.8569081457   -2.3066588737    0.1546803479
15   

H        2.1054859681   -1.2292792626   -1.2160852790
C        2.0505680313   -1.1935709986   -0.1314906955
C        3.0484702087   -1.7918396357    0.6434524356
C        2.9787072082   -1.7449475170    2.0417458927
C        1.9079436700   -1.0974775602    2.6870041082
C        0.9117636859   -0.4959868983    1.8893572519
C        0.9825442147   -0.5454906296    0.4929995434
H        0.2063216251   -0.0760072334   -0.1049743084
H        0.0733266117    0.0209338210    2.3493624586
C        1.8283876185   -1.0446254665    4.1582480503
O        2.7179557128   -1.5064188120    4.8231435473
O        0.8069598146   -0.3320784798    4.7179659736
H        0.3143662119   -0.8554760994    5.3592634566
H        3.7635768598   -2.2116345068    2.6327673343
H        3.8820307458   -2.2930717209    0.1600467776
15   

H        2.1395269966   -1.2160244434   -1.2221901700
C        2.0722531703   -1.1858705895   -0.1381390582
C        3.0670687830   -1.7782087789    0.6453624509
C        2.9811183862   -1.7386518697    2.0430528226
C        1.8969810815   -1.1044822688    2.6790796239
C        0.9035700486   -0.5098646509    1.8727676595
C        0.9907132814   -0.5516194329    0.4771424317
H        0.2161138576   -0.0875533988   -0.1271114882
H        0.0537634766   -0.0056816577    2.3261859277
C        1.7990665535   -1.0595178949    4.1496603314
O        2.6824184080   -1.5241133775    4.8236025509
O        0.7732467616   -0.3583028982    4.6950932323
H        0.4261062690   -0.8001900064    5.4800685747
H        3.7633168691   -2.2011929027    2.6407312370
H        3.9105301955   -2.2694969232    0.1690301864
15   

H        2.1597813319   -1.2033797986   -1.2262333803
C        2.0832825280   -1.1788099911   -0.1426620138
C        3.0755233852   -1.7680998191    0.6464392452
C        2.9774493131   -1.7359740169    2.0435515087
C        1.8837242644   -1.1121722257    2.6732775909
C        0.8926127022   -0.5213309379    1.8614183721
C        0.9918989217   -0.5555124780    0.4664159577
H        0.2186644222   -0.0946521166   -0.1420083709
H        0.0346261105   -0.0271753456    2.3105993166
C        1.7732893668   -1.0739759448    4.1431246634
O        2.6438080444   -1.5545251973    4.8245058725
O        0.7399032048   -0.3917489861    4.6808940055
H        0.5371981302   -0.7272174910    5.5654997440
H        3.7573482701   -2.1965482357    2.6456729565
H        3.9261542569   -2.2515541827    0.1748896860
15   

H        2.1789717130   -1.1891700324   -1.2286796522
C        2.0952202221   -1.1693665861   -0.1455522664
C        3.0879720511   -1.7519913693    0.6479202775
C        2.9803192980   -1.7262559704    2.0444848670
C        1.8762615327   -1.1158419329    2.6690380172
C        0.8843861716   -0.5322745471    1.8529578263
C        0.9934552796   -0.5596144998    0.4585603969
H        0.2193293594   -0.1046376127   -0.1531444074
H        0.0177789792   -0.0501266398    2.2987464205
C        1.7556163487   -1.0842057432    4.1380139996
O        2.6168335977   -1.5726145196    4.8267461092
O        0.6983563091   -0.4452919620    4.6712270085
H        0.6316778721   -0.6531536498    5.6154453424
H        3.7600948867   -2.1822214709    2.6502288599
H        3.9461142471   -2.2257319719    0.1801525879
15   

H        2.1947374923   -1.1718993479   -1.2287321949
C        2.1059674155   -1.1574190458   -0.1459220335
C        3.1015893113   -1.7322259663    0.6496946521
C        2.9872788617   -1.7136386985    2.0458615158
C        1.8733664095   -1.1187168756    2.6677320539
C        0.8783520950   -0.5435258852    1.8495566952
C        0.9943766621   -0.5631388669    0.4556082495
H        0.2175955238   -0.1149157896   -0.1577180713
H        0.0034217520   -0.0748249773    2.2934683920
C        1.7453979085   -1.0948666235    4.1361303246
O        2.6008502046   -1.5892391563    4.8282333557
O        0.6573499088   -0.5109972470    4.6661220628
H        0.6999389110   -0.5653211222    5.6333332705
H        3.7687698017   -2.1642753206    2.6533679016
H        3.9668078956   -2.1948620035    0.1838599218
15   

H        2.2009775835   -1.1492873357   -1.2274095206
C        2.1103843425   -1.1418824529   -0.1446771173
C        3.1112042132   -1.7098857405    0.6492613671
C        2.9944028738   -1.7007293499    2.0452977747
C        1.8725205042   -1.1226175453    2.6688218371
C        0.8719805876   -0.5547526056    1.8522412114
C        0.9908338237   -0.5643619327    0.4584086032
H        0.2096694796   -0.1221405748   -0.1537026749
H       -0.0099717057   -0.1004133802    2.2971436105
C        1.7418525834   -1.1091454935    4.1372193448
O        2.5956212908   -1.6110535645    4.8255198551
O        0.6233568342   -0.5811941972    4.6668987331
H        0.7380839982   -0.4603478616    5.6215896631
H        3.7795771393   -2.1469110771    2.6513534906
H        3.9821255646   -2.1604675685    0.1822315836
15   

H        2.2026893150   -1.1256195046   -1.2237553698
C        2.1119258807   -1.1269003448   -0.1410074740
C        3.1182364384   -1.6906913343    0.6489064332
C        3.0011310635   -1.6930544795    2.0449200478
C        1.8732946893   -1.1310714155    2.6726765776
C        0.8668880770   -0.5679496089    1.8599339461
C        0.9863204389   -0.5656218772    0.4660945046
H        0.2005614901   -0.1274598018   -0.1430531825
H       -0.0207142773   -0.1274655787    2.3074047925
C        1.7425057022   -1.1297618481    4.1413487381
O        2.5948292523   -1.6432847721    4.8216789977
O        0.5999696414   -0.6453359559    4.6728183693
H        0.7515957899   -0.3386902404    5.5778783972
H        3.7903734109   -2.1366954125    2.6475811995
H        3.9934705596   -2.1295580829    0.1787775107
15   

H        2.2024695038   -1.1019718733   -1.2185568280
C        2.1118910851   -1.1140475905   -0.1358511613
C        3.1222921958   -1.6781379779    0.6485523964
C        3.0053529381   -1.6947351513    2.0444536776
C        1.8737047971   -1.1466643548    2.6777352709
C        0.8627407607   -0.5838601049    1.8704077048
C        0.9821172383   -0.5672058763    0.4766433730
H        0.1928158645   -0.1297857354   -0.1284610224
H       -0.0290830304   -0.1558206965    2.3213983056
C        1.7438508674   -1.1595768666    4.1464720475
O        2.5897002815   -1.6921276373    4.8182492012
O        0.5891191364   -0.6919566598    4.6844649821
H        0.7563617458   -0.2017551547    5.4991357891
H        3.7975958193   -2.1390706594    2.6427139198
H        4.0004474998   -2.1065539518    0.1742248350
15   

H        2.1953434171   -1.0664360259   -1.2108978972
C        2.1066497936   -1.0919366801   -0.1282531611
C        3.1239504700   -1.6550485058    0.6478108795
C        3.0094343508   -1.6892588454    2.0435207495
C        1.8734233176   -1.1600340477    2.6850112620
C        0.8549292908   -0.5989839331    1.8860752090
C        0.9721431264   -0.5643403904    0.4923980236
H        0.1772204845   -0.1287477328   -0.1066561723
H       -0.0417780237   -0.1876640351    2.3427157194
C        1.7466811696   -1.1926938506    4.1535312613
O        2.5937540428   -1.7314971790    4.8159724646
O        0.5843044840   -0.7355723178    4.7051138892
H        0.7466948565   -0.0720224771    5.3842213722
H        3.8067935770   -2.1333101453    2.6352640725
H        4.0054240739   -2.0694497496    0.1671720330
15   

H        2.1905236638   -1.0214341699   -1.1987943066
C        2.1017002093   -1.0645862938   -0.1166944166
C        3.1207375125   -1.6369670688    0.6502404462
C        3.0057198874   -1.6948802453    2.0450534142
C        1.8682644484   -1.1791365648    2.6946389705
C        0.8474321945   -0.6093841332    1.9051284085
C        0.9648925990   -0.5516919511    0.5121744072
H        0.1680348515   -0.1107347696   -0.0803950263
H       -0.0525593848   -0.2120050208    2.3675023004
C        1.7415560525   -1.2388603941    4.1617148102
O        2.5707986420   -1.8107868799    4.8154003260
O        0.6010662935   -0.7318610651    4.7354519092
H        0.7746081666    0.0716806668    5.2340629708
H        3.8038223929   -2.1467619726    2.6299691903
H        4.0036695036   -2.0406892892    0.1631556425
15   

H        2.1933475827   -0.9586378205   -1.1807906596
C        2.1027474540   -1.0222373031   -0.0998131646
C        3.1220070525   -1.6065046446    0.6577953989
C        3.0042450680   -1.6921405701    2.0508687794
C        1.8645567018   -1.1913673106    2.7078742992
C        0.8428921933   -0.6102213105    1.9280110408
C        0.9629311382   -0.5253501639    0.5366030771
H        0.1652349353   -0.0773264156   -0.0495705981
H       -0.0614395992   -0.2289030357    2.3953435887
C        1.7335516212   -1.2860274488    4.1720040923
O        2.5470794022   -1.8862187993    4.8167186007
O        0.6300193536   -0.7166803774    4.7707449260
H        0.8012632659    0.1859191574    5.0515072455
H        3.8016461622   -2.1543900349    2.6287651227
H        4.0068079963   -1.9987921742    0.1646987188
15   

H        2.1960665030   -0.8972555603   -1.1598480876
C        2.1040115414   -0.9793445039   -0.0802018597
C        3.1227741550   -1.5759042292    0.6684007005
C        3.0027274156   -1.6868282748    2.0594024451
C        1.8619916652   -1.1980570619    2.7233542851
C        0.8401235894   -0.6051788430    1.9526584293
C        0.9623198044   -0.4956048027    0.5631006605
H        0.1643162626   -0.0403216630   -0.0171139234
H       -0.0679880862   -0.2381185984    2.4240067755
C        1.7266546409   -1.3254933139    4.1840171593
O        2.5229916889   -1.9593575847    4.8163591587
O        0.6772039887   -0.6878346228    4.8066287560
H        0.8181736138    0.2612559474    4.8588873728
H        3.7989484517   -2.1598247507    2.6303608181
H        4.0085636011   -1.9589975451    0.1697812059
15   

H        2.1842545871   -0.8586060529   -1.1414754333
C        2.0943663129   -0.9525665711   -0.0625754182
C        3.1143628437   -1.5582713195    0.6768400496
C        2.9970279075   -1.6853485503    2.0665755294
C        1.8585731497   -1.2026132683    2.7386652294
C        0.8344915370   -0.6015082517    1.9771883735
C        0.9539373407   -0.4762613420    0.5886157552
H        0.1544803256   -0.0158079982    0.0144327169
H       -0.0748490294   -0.2435884424    2.4530385389
C        1.7265393064   -1.3498761132    4.1973771368
O        2.5034087052   -2.0224237029    4.8141474954
O        0.7378277358   -0.6540267079    4.8415011394
H        0.8070926336    0.2927333846    4.6857291610
H        3.7938336546   -2.1659380797    2.6304947654
H        3.9988605922   -1.9363672026    0.1720531648
15   

H        2.1519220455   -0.8484117708   -1.1305864459
C        2.0683823266   -0.9472103669   -0.0515750273
C        3.0908192981   -1.5604048711    0.6780454414
C        2.9819620175   -1.6937212363    2.0677243506
C        1.8505730138   -1.2086956325    2.7499139791
C        0.8227895442   -0.6013185505    1.9982717010
C        0.9336977940   -0.4703666967    0.6093669699
H        0.1320979556   -0.0054671557    0.0417326986
H       -0.0838935232   -0.2449064466    2.4799982392
C        1.7320799397   -1.3605367496    4.2090372779
O        2.4827995999   -2.0780554326    4.8083043997
O        0.8064534336   -0.6146942322    4.8726871738
H        0.7703461006    0.2910990003    4.5467632775
H        3.7807870494   -2.1795680093    2.6243831946
H        3.9708060792   -1.9392295431    0.1658819373
15   

H        2.1034117338   -0.8647470441   -1.1265635265
C        2.0299308387   -0.9618974807   -0.0466449095
C        3.0549536277   -1.5824931012    0.6727558285
C        2.9596059132   -1.7129656885    2.0635087679
C        1.8403858430   -1.2166676153    2.7574629336
C        0.8086290795   -0.6030637854    2.0161184845
C        0.9058951409   -0.4756054717    0.6256803544
H        0.1022724543   -0.0056391692    0.0650854471
H       -0.0911901040   -0.2394383032    2.5047709880
C        1.7446312744   -1.3600023303    4.2189677666
O        2.4629322401   -2.1234549509    4.8019628397
O        0.8796504269   -0.5710367319    4.8998210819
H        0.7136785513    0.2641547569    4.4462994831
H        3.7609846559   -2.2031350831    2.6127817370
H        3.9269076029   -1.9684366731    0.1521580047
15   

H        2.0483633018   -0.9004171825   -1.1277977520
C        1.9860044306   -0.9912982682   -0.0466188752
C        3.0102178882   -1.6234129603    0.6635107643
C        2.9298528082   -1.7446020309    2.0558578393
C        1.8278800521   -1.2264067867    2.7613001122
C        0.7957431577   -0.6018714074    2.0292947921
C        0.8776420006   -0.4847346801    0.6367658780
H        0.0748230771   -0.0057108511    0.0827157606
H       -0.0926486262   -0.2202729721    2.5243683753
C        1.7595380070   -1.3521456080    4.2260588572
O        2.4386596347   -2.1607815522    4.7957903969
O        0.9540626887   -0.5217672158    4.9195987469
H        0.6435407285    0.2201966115    4.3848134531
H        3.7315629732   -2.2416911790    2.5984784176
H        3.8705972905   -2.0242081809    0.1348817205
15   

H        1.9917914748   -0.9392914914   -1.1330658512
C        1.9428056087   -1.0198660913   -0.0503771931
C        2.9616870658   -1.6703963994    0.6501049180
C        2.8991581627   -1.7770339865    2.0443351647
C        1.8214339445   -1.2257537963    2.7626950584
C        0.7944338748   -0.5812688882    2.0399399519
C        0.8580568827   -0.4798260012    0.6450023703
H        0.0601674141    0.0153255560    0.0980783973
H       -0.0754946108   -0.1674586529    2.5406505092
C        1.7842938436   -1.3319329438    4.2312348889
O        2.4463763271   -2.1623277464    4.7902588936
O        1.0071194014   -0.4880788124    4.9361972834
H        0.5258321485    0.1307977126    4.3713620098
H        3.6984684198   -2.2865864359    2.5789349027
H        3.8049748582   -2.0954892371    0.1129514794
