15   

H        1.8845503637   -1.1969431845   -1.1372783855
C        1.8989898194   -1.1487042555   -0.0516632316
C        2.9606942617   -1.7129158403    0.6605966576
C        2.9827614373   -1.6485464798    2.0588610583
C        1.9377440030   -1.0271729816    2.7676298769
C        0.8788116973   -0.4511549256    2.0341131875
C        0.8609936011   -0.5146555523    0.6358222713
H        0.0426241897   -0.0637821387    0.0809006684
H        0.0688828330    0.0726117553    2.5337518569
C        1.9680883683   -0.9741836753    4.2380957310
O        2.9986688411   -1.1458666493    4.8281181973
O        0.8176975165   -0.7689074310    4.9117198680
H        0.0392111191   -0.8750488027    4.3499162352
H        3.8161069762   -2.0883350476    2.6032831611
H        3.7727972540   -2.2011726576    0.1291529156
15   

H        1.8838576926   -1.2620479677   -1.1393029679
C        1.8976850625   -1.2010762149   -0.0543360947
C        2.9498306034   -1.7725909828    0.6665708376
C        2.9717723490   -1.6906361813    2.0641067317
C        1.9363535563   -1.0425350296    2.7629711123
C        0.8871238306   -0.4605205467    2.0206800858
C        0.8687458592   -0.5425072513    0.6235513022
H        0.0577802524   -0.0857919426    0.0625791167
H        0.0864422924    0.0827227072    2.5151240293
C        1.9669687079   -0.9570535557    4.2318023284
O        2.9799005709   -1.1865343014    4.8318113293
O        0.8201727735   -0.6788308861    4.8963827097
H        0.0378198781   -0.9607343381    4.4072733019
H        3.7988992320   -2.1341970625    2.6148244959
H        3.7553464324   -2.2788899186    0.1420860081
15   

H        1.8962134446   -1.3110824702   -1.1454713743
C        1.9060714463   -1.2407519505   -0.0610535150
C        2.9502955594   -1.8145573342    0.6697486570
C        2.9674282890   -1.7197139802    2.0667230216
C        1.9353379943   -1.0548151892    2.7547447323
C        0.8937839621   -0.4722954290    2.0023864868
C        0.8797244530   -0.5676501321    0.6062416452
H        0.0743151789   -0.1095803459    0.0384478563
H        0.0956979318    0.0808676648    2.4904775168
C        1.9609905227   -0.9456727612    4.2222483695
O        2.9519553600   -1.2277853219    4.8353878664
O        0.8187513595   -0.5924102168    4.8733903761
H        0.0425735843   -1.0278828458    4.5047395272
H        3.7893205794   -2.1638250563    2.6246625837
H        3.7538640088   -2.3318120593    0.1531035609
15   

H        1.9225825681   -1.3320180193   -1.1567541706
C        1.9249407678   -1.2589449016   -0.0725086219
C        2.9612628389   -1.8351689893    0.6677657751
C        2.9685564157   -1.7365641705    2.0647266559
C        1.9348661239   -1.0640504627    2.7429804085
C        0.9008632961   -0.4808168946    1.9810175560
C        0.8962143454   -0.5802840568    0.5852458238
H        0.0958838058   -0.1213307486    0.0110794803
H        0.1002072128    0.0740126755    2.4632557346
C        1.9493342915   -0.9460609383    4.2102323805
O        2.9158055587   -1.2749738308    4.8379288803
O        0.8161862423   -0.5120029357    4.8460307092
H        0.0570692655   -1.0667189309    4.6424410287
H        3.7847167745   -2.1821511583    2.6297095123
H        3.7664442288   -2.3569451616    0.1583193219
15   

H        1.9623591732   -1.3202246492   -1.1735337617
C        1.9534611582   -1.2517158245   -0.0890633986
C        2.9811055338   -1.8322582415    0.6599906555
C        2.9731974815   -1.7400856262    2.0575023895
C        1.9333810975   -1.0684793414    2.7273795932
C        0.9078096209   -0.4822334629    1.9565328155
C        0.9179682674   -0.5755721688    0.5604673164
H        0.1229744513   -0.1147714938   -0.0195224478
H        0.1001780823    0.0668876776    2.4337809875
C        1.9291469593   -0.9584922434    4.1957048625
O        2.8728577852   -1.3252648400    4.8365564315
O        0.8133844471   -0.4410311361    4.8144917730
H        0.0849205742   -1.0676986832    4.8165559905
H        3.7823954907   -2.1896152035    2.6291745563
H        3.7910475839   -2.3527620282    0.1569251196
15   

H        2.0135781468   -1.2842097892   -1.1913346888
C        1.9897553607   -1.2268377382   -0.1064815068
C        3.0069956581   -1.8148006141    0.6509811675
C        2.9788252920   -1.7381260977    2.0492587921
C        1.9295943714   -1.0734406001    2.7115496162
C        0.9143351771   -0.4806529714    1.9320852424
C        0.9443225692   -0.5589253576    0.5354444168
H        0.1558155820   -0.0942172158   -0.0501720328
H        0.0967633699    0.0578890933    2.4044913326
C        1.8997871122   -0.9847514010    4.1816005266
O        2.8238530391   -1.3846174627    4.8327035659
O        0.8135777641   -0.3840208727    4.7813433930
H        0.1343895329   -1.0226726858    5.0130015120
H        3.7793508242   -2.1947318462    2.6273221455
H        3.8240421621   -2.3298576095    0.1539318700
15   

H        2.0656466542   -1.2478161434   -1.2061178958
C        2.0254511109   -1.2028346824   -0.1211972856
C        3.0322740494   -1.7973491804    0.6450307796
C        2.9820830772   -1.7377642526    2.0436072991
C        1.9215830055   -1.0825429797    2.6976598182
C        0.9166565374   -0.4839710666    1.9090680045
C        0.9682889071   -0.5455918230    0.5122917665
H        0.1863762398   -0.0775478988   -0.0794101917
H        0.0879574159    0.0426251267    2.3755856143
C        1.8644648008   -1.0160943889    4.1688027370
O        2.7728100942   -1.4446641856    4.8270544181
O        0.8118864082   -0.3497796604    4.7476219735
H        0.2118289264   -0.9483311713    5.2015783603
H        3.7740359712   -2.2007821348    2.6281720201
H        3.8578338096   -2.3050504319    0.1546201472
15   

H        2.1064433258   -1.2277835117   -1.2160938271
C        2.0513953678   -1.1922743824   -0.1314993476
C        3.0492076536   -1.7906795711    0.6434541784
C        2.9792483458   -1.7440914577    2.0417482398
C        1.9083707150   -1.0967996727    2.6869972829
C        0.9123011541   -0.4951399233    1.8893396864
C        0.9832787045   -0.5443384097    0.4929814177
H        0.2071126587   -0.0747695579   -0.1049986642
H        0.0737532352    0.0216049189    2.3493404940
C        1.8283881370   -1.0446122746    4.1582436765
O        2.7179718929   -1.5063816611    4.8231421996
O        0.8069430448   -0.3321011349    4.7179690519
H        0.3143682362   -0.8555188143    5.3592646619
H        3.7640092544   -2.2109504799    2.6327778753
H        3.8828273788   -2.2918208700    0.1600566357
15   

H        2.1402167966   -1.2149187596   -1.2221844688
C        2.0728489848   -1.1849120180   -0.1381351415
C        3.0675981805   -1.7773535322    0.6453726329
C        2.9815058926   -1.7380213817    2.0430607710
C        1.8972876121   -1.1039810442    2.6790793701
C        0.9039579532   -0.5092358305    1.8727610473
C        0.9912434874   -0.5507651290    0.4771381481
H        0.2166860874   -0.0866341858   -0.1271197593
H        0.0540726583   -0.0051807705    2.3261740578
C        1.7990648920   -1.0595077510    4.1496555281
O        2.6824298442   -1.5240885205    4.8235997111
O        0.7732368745   -0.3583201056    4.6950982431
H        0.4261107457   -0.8002211738    5.4800723659
H        3.7636246566   -2.2006914564    2.6407434348
H        3.9111012540   -2.2685764106    0.1690469487
15   

H        2.1602146407   -1.2026490570   -1.2262249168
C        2.0836570579   -1.1781758348   -0.1426555329
C        3.0758579175   -1.7675311099    0.6464471777
C        2.9776948336   -1.7355527031    2.0435566020
C        1.8839171613   -1.1118384467    2.6732783694
C        0.8928551418   -0.5209157723    1.8614180437
C        0.9922307975   -0.5549491415    0.4664184272
H        0.2190214235   -0.0940479072   -0.1420068512
H        0.0348177815   -0.0268460151    2.3105965046
C        1.7732870249   -1.0739648113    4.1431193128
O        2.6438235577   -1.5544947917    4.8245015410
O        0.7398915337   -0.3917709077    4.6809002893
H        0.5372040601   -0.7272520831    5.5655056809
H        3.7575444972   -2.1962095863    2.6456785847
H        3.9265158952   -2.2509408133    0.1749007721
15   

H        2.1791628554   -1.1887964204   -1.2286759072
C        2.0953857004   -1.1690424482   -0.1455496084
C        3.0881203359   -1.7517009748    0.6479196614
C        2.9804281201   -1.7260407770    2.0444825024
C        1.8763465763   -1.1156711334    2.6690369294
C        0.8844929354   -0.5320619793    1.8529606954
C        0.9936016857   -0.5593263193    0.4585648141
H        0.2194864164   -0.1043282437   -0.1531376783
H        0.0178626879   -0.0499575144    2.2987515108
C        1.7556122556   -1.0841983111    4.1380086188
O        2.6168413565   -1.5725990153    4.8267423208
O        0.6983528723   -0.4453050078    4.6712337923
H        0.6316876847   -0.6531752277    5.6154516743
H        3.7601813300   -2.1820482157    2.6502237570
H        3.9462744461   -2.2254187869    0.1801507193
15   

H        2.1947092087   -1.1718837354   -1.2287385186
C        2.1059430938   -1.1574055923   -0.1459280064
C        3.1015681230   -1.7322142197    0.6496834714
C        2.9872629082   -1.7136297900    2.0458506444
C        1.8733528307   -1.1187092501    2.6677265016
C        0.8783352399   -0.5435165062    1.8495569777
C        0.9943545442   -0.5631266197    0.4556079181
H        0.2175711763   -0.1149023299   -0.1577146527
H        0.0034070811   -0.0748168360    2.2934743231
C        1.7453914501   -1.0948628721    4.1361247707
O        2.6008503096   -1.5892390423    4.8282279659
O        0.6573532767   -0.5109993448    4.6661296362
H        0.6999540803   -0.5653297355    5.6333404788
H        3.7687561557   -2.1642676769    2.6533531896
H        3.9667850173   -2.1948493555    0.1838446522
15   

H        2.2007638002   -1.1496477077   -1.2274291358
C        2.1101986699   -1.1421947447   -0.1446947178
C        3.1110380703   -1.7101651801    0.6492426400
C        2.9942792643   -1.7009353225    2.0452820253
C        1.8724215650   -1.1227800858    2.6688101206
C        0.8718577195   -0.5549561387    1.8522307996
C        0.9906681885   -0.5646392733    0.4583949849
H        0.2094914862   -0.1224384641   -0.1537153357
H       -0.0100703069   -0.1005745866    2.2971381334
C        1.7418442730   -1.1091455964    4.1372136933
O        2.5956126918   -1.6110677238    4.8255151724
O        0.6233657383   -0.5811850372    4.6669061589
H        0.7381070498   -0.4603452269    5.6215966941
H        3.7794771816   -2.1470755250    2.6513376917
H        3.9819466330   -2.1607690147    0.1822102127
15   

H        2.2023025860   -1.1263741181   -1.2237943230
C        2.1115894827   -1.1275539123   -0.1410421079
C        3.1179340772   -1.6912762480    0.6488774708
C        3.0009059001   -1.6934857089    2.0448978456
C        1.8731154622   -1.1314116328    2.6726558123
C        0.8666664126   -0.5683750658    1.8599068184
C        0.9860211597   -0.5662017686    0.4660605276
H        0.2002410109   -0.1280827270   -0.1430907424
H       -0.0208904652   -0.1278025087    2.3073807921
C        1.7424952170   -1.1297652323    4.1413428617
O        2.5948125588   -1.6433128635    4.8216728059
O        0.5999815756   -0.6453155250    4.6728259354
H        0.7516274357   -0.3386777537    5.5778857632
H        3.7901918931   -2.1370409375    2.6475648505
H        3.9931448807   -2.1301896669    0.1787487460
15   

H        2.2019021302   -1.1031428358   -1.2186238117
C        2.1113980734   -1.1150607959   -0.1359102083
C        3.1218509995   -1.6790403964    0.6485063208
C        3.0050262222   -1.6953979855    2.0444201668
C        1.8734444138   -1.1471896301    2.6777021812
C        0.8624160153   -0.5845217276    1.8703599758
C        0.9816776318   -0.5681077903    0.4765831220
H        0.1923438619   -0.1307574948   -0.1285294687
H       -0.0293414475   -0.1563475019    2.3213538130
C        1.7438414781   -1.1595802722    4.1464666813
O        2.5896860048   -1.6921495693    4.8182448066
O        0.5891282398   -0.6919400859    4.6844710685
H        0.7563898927   -0.2017431636    5.4991409894
H        3.7973355938   -2.1395976881    2.6426930074
H        3.9999731344   -2.1075266323    0.1741809338
15   

H        2.1945887889   -1.0680400588   -1.2110054567
C        2.1059943672   -1.0933248577   -0.1283475841
C        3.1233625419   -1.6562883122    0.6477356928
C        3.0089989717   -1.6901710057    2.0434663170
C        1.8730779363   -1.1607548078    2.6849596838
C        0.8544998679   -0.5998877152    1.8860019129
C        0.9715605012   -0.5655730465    0.4923039405
H        0.1765957348   -0.1300735062   -0.1067619898
H       -0.0421177804   -0.1883805507    2.3426498151
C        1.7466703787   -1.1927006338    4.1535260743
O        2.5937320746   -1.7315294789    4.8159687824
O        0.5843146081   -0.7355471359    4.7051185344
H        0.7467312763   -0.0720023406    5.3842247046
H        3.8064456203   -2.1340390627    2.6352289766
H        4.0047907506   -2.0707880801    0.1670987269
15   

H        2.1894948246   -1.0233850180   -1.1989664813
C        2.1008097168   -1.0662774436   -0.1168449788
C        3.1199380345   -1.6384882664    0.6500955070
C        3.0051290216   -1.6960056903    2.0449419300
C        1.8677989497   -1.1800210598    2.6945571722
C        0.8468548022   -0.6104807321    1.9050386953
C        0.9641052751   -0.5531866684    0.5120503460
H        0.1671897273   -0.1123344618   -0.0805192284
H       -0.0530153005   -0.2128660202    2.3674463382
C        1.7415377547   -1.2388741136    4.1617086621
O        2.5707483659   -1.8108536126    4.8153960276
O        0.6010843426   -0.7318112742    4.7354542568
H        0.7746778590    0.0717176422    5.2340679807
H        3.8033449818   -2.1476706879    2.6298700029
H        4.0028039842   -2.0423352175    0.1629944703
15   

H        2.1920718644   -0.9607160217   -1.1810338469
C        2.1016509026   -1.0240400133   -0.1000252344
C        3.1210330016   -1.6081220682    0.6575605136
C        3.0035354463   -1.6933353581    2.0506813899
C        1.8639989413   -1.1923100852    2.7077595361
C        0.8421880224   -0.6113952739    1.9279176985
C        0.9619613476   -0.5269485453    0.5364599959
H        0.1641849156   -0.0790388392   -0.0496911657
H       -0.0619994913   -0.2298265857    2.3953244571
C        1.7335388424   -1.2860344471    4.1719997394
O        2.5470548902   -1.8862473052    4.8167177345
O        0.6300298214   -0.7166576198    4.7707461311
H        0.8013009899    0.1859379278    5.0515046476
H        3.8010781839   -2.1553472617    2.6285721871
H        4.0057511772   -2.0005381074    0.1644174234
15   

H        2.1947128644   -0.8991319690   -1.1601232357
C        2.1028531342   -0.9809753027   -0.0804417768
C        3.1217467169   -1.5773767619    0.6681071978
C        3.0019828331   -1.6879213765    2.0591621349
C        1.8614105192   -1.1989160006    2.7232232383
C        0.8393883573   -0.6062377137    1.9525812193
C        0.9613001437   -0.4970452943    0.5629666391
H        0.1632093255   -0.0418573743   -0.0172019210
H       -0.0685720837   -0.2389432453    2.4240375805
C        1.7266404034   -1.3255009760    4.1840133022
O        2.5229630600   -1.9593881536    4.8163580767
O        0.6772146513   -0.6878127990    4.8066287795
H        0.8182109921    0.2612737249    4.8588856084
H        3.7983486039   -2.1607070020    2.6300935211
H        4.0074435599   -1.9605895293    0.1694145905
15   

H        2.1830109677   -0.8600671217   -1.1417206249
C        2.0933064703   -0.9538390224   -0.0627889306
C        3.1134248578   -1.5594266427    0.6765524812
C        2.9963523706   -1.6862099849    2.0663351729
C        1.8580492845   -1.2032881258    2.7385488579
C        0.8338262389   -0.6023331947    1.9771475181
C        0.9530080977   -0.4773822509    0.5885233935
H        0.1534684880   -0.0169977054    0.0144009500
H       -0.0753774613   -0.2442252100    2.4531166656
C        1.7265273604   -1.3498802070    4.1973750642
O        2.5033872645   -2.0224477502    4.8141403649
O        0.7378355067   -0.6540096401    4.8415042669
H        0.8071218129    0.2927487769    4.6857321843
H        3.7932879811   -2.1666370414    2.6302097917
H        3.9978339429   -1.9376173119    0.1716806959
15   

H        2.1509384691   -0.8494499750   -1.1307654626
C        2.0675454820   -0.9481167214   -0.0517306406
C        3.0900782726   -1.5612321876    0.6778202775
C        2.9814290560   -1.6943414918    2.0675337202
C        1.8501613920   -1.2091809654    2.7498294017
C        0.8222671071   -0.6019067826    1.9982587518
C        0.9329660487   -0.4711637005    0.6093157638
H        0.1313006840   -0.0063096860    0.0417373929
H       -0.0843083192   -0.2453583289    2.4800862503
C        1.7320711998   -1.3605416134    4.2090352845
O        2.4827789562   -2.0780719343    4.8083070248
O        0.8064597221   -0.6146808271    4.8726823357
H        0.7703691066    0.2911116053    4.5467541279
H        3.7803546291   -2.1800743543    2.6241481748
H        3.9699930683   -1.9401251202    0.1655830687
15   

H        2.1027273441   -0.8653922174   -1.1266681740
C        2.0293487045   -0.9624626897   -0.0467354149
C        3.0544375732   -1.5830115001    0.6726102298
C        2.9592341952   -1.7133572400    2.0633837164
C        1.8400988755   -1.2169747416    2.7574148108
C        0.8082657788   -0.6034331322    2.0161274456
C        0.9053866082   -0.4761029180    0.6256660180
H        0.1017183171   -0.0061632772    0.0651145994
H       -0.0914795135   -0.2397225887    2.5048523500
C        1.7446223341   -1.3600076061    4.2189671693
O        2.4629092781   -2.1234719283    4.8019672369
O        0.8796570551   -0.5710231832    4.8998162704
H        0.7137027303    0.2641688277    4.4462888539
H        3.7606816286   -2.2034563914    2.6126195727
H        3.9263408116   -1.9689971530    0.1519582151
15   

H        2.0480123401   -0.9007164913   -1.1278406450
C        1.9857053713   -0.9915615752   -0.0466557499
C        3.0099526985   -1.6236543401    0.6634438294
C        2.9296609182   -1.7447854555    2.0557994962
C        1.8277309442   -1.2265521405    2.7612809759
C        0.7955546977   -0.6020465288    2.0293068898
C        0.8773798863   -0.4849682487    0.6367679979
H        0.0745374014   -0.0059571549    0.0827412465
H       -0.0928004580   -0.2204101072    2.5244168457
C        1.7595309640   -1.3521489483    4.2260582469
O        2.4386431647   -2.1607922615    4.7957947108
O        0.9540667574   -0.5217591351    4.9195930511
H        0.6435555903    0.2202057428    4.3848023805
H        3.7314061918   -2.2418411955    2.5983990657
H        3.8703065613   -2.0244678455    0.1347868512
15   

H        1.9918047224   -0.9392892434   -1.1330642736
C        1.9428149999   -1.0198649131   -0.0503758697
C        2.9616924124   -1.6703986116    0.6501090761
C        2.8991584687   -1.7770376145    2.0443390383
C        1.8214333219   -1.2257551501    2.7626955981
C        0.7944371996   -0.5812671197    2.0399376852
C        0.8580651558   -0.4798229467    0.6450004780
H        0.0601786025    0.0153309229    0.0980743352
H       -0.0754922444   -0.1674558800    2.5406458467
C        1.7842871622   -1.3319355372    4.2312349782
O        2.4463606446   -2.1623385220    4.7902618717
O        1.0071228433   -0.4880721497    4.9361936299
H        0.5258446077    0.1308077647    4.3713537733
H        3.6984653577   -2.2865928014    2.5789412024
H        3.8049809053   -2.0954930233    0.1129579894
