15   

H        1.8844837295   -1.1974114397   -1.1372589372
C        1.8989259888   -1.1491075617   -0.0516467094
C        2.9606301744   -1.7132789432    0.6606461721
C        2.9827074623   -1.6488140223    2.0589067174
C        1.9377002904   -1.0273812011    2.7676382661
C        0.8787645379   -0.4514122271    2.0340868445
C        0.8609360786   -0.5150090086    0.6358011919
H        0.0425691005   -0.0641620439    0.0808542681
H        0.0688493073    0.0724084386    2.5336911109
C        1.9680897212   -0.9741908872    4.2380961931
O        2.9986689886   -1.1458832446    4.8281131912
O        0.8177008376   -0.7689023661    4.9117254249
H        0.0392105000   -0.8750360873    4.3499263529
H        3.8160621642   -2.0885547371    2.6033531717
H        3.7727307594   -2.2015689974    0.1292295269
15   

H        1.8836721042   -1.2629966680   -1.1392468688
C        1.8975129629   -1.2018920696   -0.0542876411
C        2.9496613289   -1.7733266902    0.6666800621
C        2.9716342449   -1.6911767537    2.0642052710
C        1.9362440439   -1.0429525994    2.7629972479
C        0.8870038341   -0.4610354055    2.0206423772
C        0.8685940404   -0.5432187946    0.6235270144
H        0.0576315239   -0.0865554561    0.0625075780
H        0.0863573352    0.0823216195    2.5150184110
C        1.9669692172   -0.9570638609    4.2318026208
O        2.9798986341   -1.1865614993    4.8318058916
O        0.8201798788   -0.6788194542    4.8963881059
H        0.0378185925   -0.9607088413    4.4072844056
H        3.7987832748   -2.1346416303    2.6149666459
H        3.7551671501   -2.2796950988    0.1422473560
15   

H        1.8958469830   -1.3125078916   -1.1453676496
C        1.9057396293   -1.2419773763   -0.0609630846
C        2.9499779989   -1.8156601188    0.6699167250
C        2.9671772722   -1.7205221778    2.0668718618
C        1.9351403222   -1.0554397245    2.7547952714
C        0.8935596296   -0.4730684779    2.0023556822
C        0.8794326777   -0.5687199511    0.6062337489
H        0.0740212361   -0.1107290061    0.0383787804
H        0.0955355261    0.0802669296    2.4903533647
C        1.9609908645   -0.9456829309    4.2222495775
O        2.9519525252   -1.2278115673    4.8353835352
O        0.8187592339   -0.5923984266    4.8733959186
H        0.0425716754   -1.0278574338    4.5047499681
H        3.7891120666   -2.1644863171    2.6248652435
H        3.7535247123   -2.3330179058    0.1533415519
15   

H        1.9219858956   -1.3339005041   -1.1566115227
C        1.9244084883   -1.2605644876   -0.0723838404
C        2.9607637535   -1.8366234534    0.6679744905
C        2.9681705256   -1.7376296791    2.0649090365
C        1.9345628171   -1.0648770367    2.7430505866
C        0.9005089738   -0.4818434258    1.9810001501
C        0.8957457072   -0.5817022226    0.5852589509
H        0.0954020736   -0.1228545373    0.0110256806
H        0.0999446732    0.0732128936    2.4631307115
C        1.9493363838   -0.9460740059    4.2102333606
O        2.9157964688   -1.2750075839    4.8379326195
O        0.8161977537   -0.5119863117    4.8460295134
H        0.0570666120   -1.0666835643    4.6424416260
H        3.7843997073   -2.1830183535    2.6299483856
H        3.7659088426   -2.3585320738    0.1586069040
15   

H        1.9614647562   -1.3224304628   -1.1733843267
C        1.9526738392   -1.2536175984   -0.0889322984
C        2.9803821711   -1.8339637333    0.6601875765
C        2.9726497547   -1.7413375803    2.0576717084
C        1.9329501342   -1.0694567764    2.7274538989
C        0.9072912206   -0.4834499366    1.9565383829
C        0.9172730513   -0.5772449655    0.5605040078
H        0.1222457299   -0.1165690212   -0.0195396134
H        0.0997830098    0.0659350003    2.4336924938
C        1.9291472176   -0.9585095122    4.1957072780
O        2.8728462897   -1.3253088097    4.8365547622
O        0.8133990387   -0.4410092316    4.8144934309
H        0.0849154923   -1.0676539482    4.8165609711
H        3.7819504322   -2.1906288630    2.6293856366
H        3.7902691894   -2.3546163780    0.1571879007
15   

H        2.0124667944   -1.2864571546   -1.1912259559
C        1.9887858349   -1.2287786299   -0.1063858609
C        3.0061191228   -1.8165360486    0.6511122664
C        2.9781719047   -1.7394004042    2.0493697579
C        1.9290785235   -1.0744424942    2.7116036141
C        0.9136996370   -0.4819060551    1.9321023057
C        0.9434629004   -0.5606417296    0.5354837687
H        0.1549015250   -0.0960637756   -0.0501632289
H        0.0962680855    0.0569010107    2.4044495014
C        1.8997871848   -0.9847667810    4.1816034081
O        2.8238412094   -1.3846559978    4.8327016725
O        0.8135931305   -0.3839986397    4.7813436128
H        0.1343853978   -1.0226276622    5.0130069205
H        3.7788256288   -2.1957547253    2.6274541831
H        3.8230980783   -2.3317370323    0.1541013204
15   

H        2.0645198161   -1.2497805978   -1.2060674659
C        2.0244734222   -1.2045352018   -0.1211522542
C        3.0313964659   -1.7988718877    0.6450825366
C        2.9814343174   -1.7388866596    2.0436502702
C        1.9210715160   -1.0834284139    2.6976861946
C        0.9160196520   -0.4850757382    1.9090874132
C        0.9674221698   -0.5470986872    0.5123207551
H        0.1854483190   -0.0791665215   -0.0793889885
H        0.0874563919    0.0417524778    2.3755845759
C        1.8644636305   -1.0161122555    4.1688072952
O        2.7727895320   -1.4447172497    4.8270557774
O        0.8119089140   -0.3497498152    4.7476210989
H        0.2118246188   -0.9482730340    5.2015791505
H        3.7735151065   -2.2016826577    2.6282176973
H        3.8568864176   -2.3066961104    0.1546816446
15   

H        2.1054630257   -1.2293147752   -1.2160851548
C        2.0505482335   -1.1936016917   -0.1314905714
C        3.0484526697   -1.7918668777    0.6434523152
C        2.9786944062   -1.7449674033    2.0417457522
C        1.9079335061   -1.0974933256    2.6870041786
C        0.9117507708   -0.4960068879    1.8893575877
C        0.9825265608   -0.5455179791    0.4929998902
H        0.2063025299   -0.0760367822   -0.1049738202
H        0.0733162824    0.0209179151    2.3493629228
C        1.8283876185   -1.0446254665    4.1582480503
O        2.7179557128   -1.5064188120    4.8231435473
O        0.8069598146   -0.3320784798    4.7179659736
H        0.3143662119   -0.8554760994    5.3592634566
H        3.7635667373   -2.2116501457    2.6327669980
H        3.8820118364   -2.2931010682    0.1600464670
15   

H        2.1395105183   -1.2160500410   -1.2221904085
C        2.0722389501   -1.1858927339   -0.1381392531
C        3.0670562216   -1.7782284034    0.6453620539
C        2.9811092198   -1.7386662277    2.0430524797
C        1.8969737689   -1.1044937249    2.6790795239
C        0.9035607260   -0.5098791934    1.8727677755
C        0.9907005666   -0.5516392376    0.4771424863
H        0.2161000873   -0.0875747993   -0.1271113090
H        0.0537559776   -0.0056932987    2.3261862346
C        1.7990665535   -1.0595178949    4.1496603314
O        2.6824184080   -1.5241133775    4.8236025509
O        0.7732467616   -0.3583028982    4.6950932323
H        0.4261062690   -0.8001900064    5.4800685747
H        3.7633096443   -2.2012041597    2.6407307587
H        3.9105166726   -2.2695180138    0.1690295931
15   

H        2.1597705534   -1.2033965627   -1.2262337136
C        2.0832732393   -1.1788244764   -0.1426622958
C        3.0755151325   -1.7681127553    0.6464388172
C        2.9774432989   -1.7359834953    2.0435511536
C        1.8837195320   -1.1121796942    2.6732774499
C        0.8926067198   -0.5213403009    1.8614183820
C        0.9918906961   -0.5555253009    0.4664158898
H        0.2186555480   -0.0946658913   -0.1420083380
H        0.0346213825   -0.0271826928    2.3105995027
C        1.7732893668   -1.0739759448    4.1431246634
O        2.6438080444   -1.5545251973    4.8245058725
O        0.7399032048   -0.3917489861    4.6808940055
H        0.5371981302   -0.7272174910    5.5654997440
H        3.7573434771   -2.1965557687    2.6456725111
H        3.9261453190   -2.2515681626    0.1748890930
15   

H        2.1789667133   -1.1891784449   -1.2286798712
C        2.0952158920   -1.1693738785   -0.1455524543
C        3.0879682184   -1.7519978219    0.6479200783
C        2.9803164879   -1.7262606911    2.0444847107
C        1.8762592878   -1.1158457025    2.6690379208
C        0.8843833042   -0.5322793645    1.8529577408
C        0.9934513904   -0.5596210505    0.4585602640
H        0.2193251484   -0.1046447066   -0.1531445348
H        0.0177766562   -0.0501305270    2.2987463863
C        1.7556163487   -1.0842057432    4.1380139996
O        2.6168335977   -1.5726145196    4.8267461092
O        0.6983563091   -0.4452919620    4.6712270085
H        0.6316778721   -0.6531536498    5.6154453424
H        3.7600926724   -2.1822251728    2.6502287019
H        3.9461101339   -2.2257388934    0.1801523507
15   

H        2.1947375598   -1.1718993342   -1.2287321631
C        2.1059674717   -1.1574190329   -0.1459220036
C        3.1015893730   -1.7322259239    0.6496946975
C        2.9872789042   -1.7136386540    2.0458615549
C        1.8733664246   -1.1187168623    2.6677320683
C        0.8783521061   -0.5435258966    1.8495567031
C        0.9943766924   -0.5631388820    0.4556082602
H        0.2175955452   -0.1149158307   -0.1577180672
H        0.0034217485   -0.0748250102    2.2934683941
C        1.7453979085   -1.0948666235    4.1361303246
O        2.6008502046   -1.5892391563    4.8282333557
O        0.6573499088   -0.5109972470    4.6661220628
H        0.6999389110   -0.5653211222    5.6333332705
H        3.7687698515   -2.1642752507    2.6533679499
H        3.9668079756   -2.1948619415    0.1838599829
15   

H        2.2009821952   -1.1492783142   -1.2274091747
C        2.1103883065   -1.1418746888   -0.1446768178
C        3.1112077217   -1.7098788763    0.6492615936
C        2.9944054159   -1.7007243765    2.0452979283
C        1.8725225125   -1.1226136132    2.6688219898
C        0.8719831413   -0.5547475938    1.8522414502
C        0.9908373449   -0.5643550336    0.4584089104
H        0.2096732964   -0.1221330941   -0.1537023232
H       -0.0099696809   -0.1004093876    2.2971438402
C        1.7418525834   -1.1091454935    4.1372193448
O        2.5956212908   -1.6110535645    4.8255198551
O        0.6233568342   -0.5811941972    4.6668987331
H        0.7380839982   -0.4603478616    5.6215896631
H        3.7795791245   -2.1469071787    2.6513535752
H        3.9821293508   -2.1604601565    0.1822318006
15   

H        2.2026976181   -1.1256016846   -1.2237546192
C        2.1119331000   -1.1268849310   -0.1410068171
C        3.1182428404   -1.6906777390    0.6489068347
C        3.0011357806   -1.6930445414    2.0449202988
C        1.8732984832   -1.1310634479    2.6726769250
C        0.8668928841   -0.5679394281    1.8599345785
C        0.9863269348   -0.5656080391    0.4660952835
H        0.2005684959   -0.1274448144   -0.1430522345
H       -0.0207104153   -0.1274573546    2.3074054767
C        1.7425057022   -1.1297618481    4.1413487381
O        2.5948292523   -1.6432847721    4.8216789977
O        0.5999696414   -0.6453359559    4.6728183693
H        0.7515957899   -0.3386902404    5.5778783972
H        3.7903770865   -2.1366876471    2.6475812185
H        3.9934773916   -2.1295435206    0.1787778102
15   

H        2.2024823248   -1.1019440082   -1.2185553685
C        2.1119021962   -1.1140235398   -0.1358498862
C        3.1223020524   -1.6781167440    0.6485532623
C        3.0053601669   -1.6947196681    2.0444542498
C        1.8737105742   -1.1466520086    2.6777359314
C        0.8627480759   -0.5838443541    1.8704088267
C        0.9821271912   -0.5671843572    0.4766447844
H        0.1928266129   -0.1297624058   -0.1284593402
H       -0.0290771936   -0.1558080508    2.3213994517
C        1.7438508674   -1.1595768666    4.1464720475
O        2.5897002815   -1.6921276373    4.8182492012
O        0.5891191364   -0.6919566598    4.6844649821
H        0.7563617458   -0.2017551547    5.4991357891
H        3.7976014554   -2.1390585170    2.6427141265
H        4.0004580603   -2.1065311331    0.1742255710
15   

H        2.1953609715   -1.0663981874   -1.2108954561
C        2.1066650122   -1.0919039630   -0.1282510305
C        3.1239640453   -1.6550194035    0.6478125399
C        3.0094443056   -1.6892375178    2.0435219162
C        1.8734311871   -1.1600171599    2.6850123688
C        0.8549392004   -0.5989625979    1.8860768548
C        0.9721566689   -0.5643112579    0.4924001586
H        0.1772350675   -0.1287163180   -0.1066537594
H       -0.0417701935   -0.1876470748    2.3427172258
C        1.7466811696   -1.1926938506    4.1535312613
O        2.5937540428   -1.7314971790    4.8159724646
O        0.5843044840   -0.7355723178    4.7051138892
H        0.7466948565   -0.0720224771    5.3842213722
H        3.8068014357   -2.1332932111    2.6352647773
H        4.0054386963   -2.0694183674    0.1671736363
15   

H        2.1905475572   -1.0213882656   -1.1987903139
C        2.1017208321   -1.0645465560   -0.1166909373
C        3.1207558097   -1.6369317173    0.6502437536
C        3.0057332361   -1.6948543104    2.0450559223
C        1.8682750155   -1.1791159734    2.6946407929
C        0.8474455866   -0.6093581396    1.9051304757
C        0.9649109527   -0.5516565162    0.5121772916
H        0.1680547080   -0.1106965585   -0.0803921032
H       -0.0525487257   -0.2119843442    2.3675036277
C        1.7415560525   -1.2388603941    4.1617148102
O        2.5707986420   -1.8107868799    4.8154003260
O        0.6010662935   -0.7318610651    4.7354519092
H        0.7746081666    0.0716806668    5.2340629708
H        3.8038329084   -2.1467414530    2.6299713870
H        4.0036892375   -2.0406512335    0.1631593138
15   

H        2.1933774965   -0.9585884454   -1.1807849444
C        2.1027731130   -1.0221945587   -0.0998081956
C        3.1220296666   -1.6064666295    0.6578008408
C        3.0042614109   -1.6921126730    2.0508730884
C        1.8645695900   -1.1913451387    2.7078769344
C        0.8429086806   -0.6101933470    1.9280132395
C        0.9629539211   -0.5253120440    0.5366064656
H        0.1652597234   -0.0772853315   -0.0495676838
H       -0.0614264261   -0.2288808252    2.3953440814
C        1.7335516212   -1.2860274488    4.1720040923
O        2.5470794022   -1.8862187993    4.8167186007
O        0.6300193536   -0.7166803774    4.7707449260
H        0.8012632659    0.1859191574    5.0515072455
H        3.8016590376   -2.1543680029    2.6287695253
H        4.0068324688   -1.9987512810    0.1647052094
15   

H        2.1960986569   -0.8972109034   -1.1598415429
C        2.1040389775   -0.9793057606   -0.0801961691
C        3.1227983118   -1.5758695350    0.6684076657
C        3.0027447471   -1.6868026903    2.0594081252
C        1.8620051954   -1.1980368314    2.7233573367
C        0.8401409566   -0.6051535591    1.9526602103
C        0.9623440148   -0.4955703774    0.5631038078
H        0.1643426831   -0.0402847441   -0.0171118797
H       -0.0679742275   -0.2380986897    2.4240060019
C        1.7266546409   -1.3254933139    4.1840171593
O        2.5229916889   -1.9593575847    4.8163591587
O        0.6772039887   -0.6878346228    4.8066287560
H        0.8181736138    0.2612559474    4.8588873728
H        3.7989622046   -2.1598043776    2.6303671637
H        4.0085899090   -1.9589601543    0.1697899280
15   

H        2.1842841462   -0.8585709746   -1.1414695623
C        2.0943914340   -0.9525360904   -0.0625703162
C        3.1143849667   -1.5582438148    0.6768468948
C        2.9970436909   -1.6853281808    2.0665812266
C        1.8585853463   -1.2025972717    2.7386679697
C        0.8345072040   -0.6014884923    1.9771893449
C        0.9539593717   -0.4762344153    0.5886179710
H        0.1545044032   -0.0157792846    0.0144335000
H       -0.0748365850   -0.2435730992    2.4530366999
C        1.7265393064   -1.3498761132    4.1973771368
O        2.5034087052   -2.0224237029    4.8141474954
O        0.7378277358   -0.6540267079    4.8415011394
H        0.8070926336    0.2927333846    4.6857291610
H        3.7938462763   -2.1659217066    2.6305015149
H        3.9988848235   -1.9363374670    0.1720620454
15   

H        2.1519454241   -0.8483875507   -1.1305822361
C        2.0684021532   -0.9471892488   -0.0515713757
C        3.0908367057   -1.5603858113    0.6780507937
C        2.9819744184   -1.6937070433    2.0677288813
C        1.8505826135   -1.2086843959    2.7499159367
C        0.8228019100   -0.6013047040    1.9982719132
C        0.9337151927   -0.4703479503    0.6093680912
H        0.1321170192   -0.0054471799    0.0417324590
H       -0.0838836475   -0.2448956446    2.4799960323
C        1.7320799397   -1.3605367496    4.2090372779
O        2.4827995999   -2.0780554326    4.8083043997
O        0.8064534336   -0.6146942322    4.8726871738
H        0.7703461006    0.2910990003    4.5467632775
H        3.7807969540   -2.1795566498    2.6243888215
H        3.9708251413   -1.9392090351    0.1658890780
15   

H        2.1034280922   -0.8647322799   -1.1265610570
C        2.0299447051   -0.9618845262   -0.0466427726
C        3.0549658233   -1.5824813178    0.6727593683
C        2.9596145909   -1.7129568241    2.0635118205
C        1.8403925244   -1.2166605950    2.7574640639
C        0.8086376832   -0.6030552099    2.0161181754
C        0.9059072802   -0.4755939565    0.6256805957
H        0.1022857572   -0.0056269678    0.0650845863
H       -0.0911832333   -0.2394316142    2.5047689047
C        1.7446312744   -1.3600023303    4.2189677666
O        2.4629322401   -2.1234549509    4.8019628397
O        0.8796504269   -0.5710367319    4.8998210819
H        0.7136785513    0.2641547569    4.4462994831
H        3.7609916253   -2.2031279190    2.6127857538
H        3.9269209950   -1.9684240026    0.1521628995
15   

H        2.0483716608   -0.9004102971   -1.1277967410
C        1.9860115102   -0.9912922348   -0.0466180113
C        3.0102239467   -1.6234077899    0.6635123504
C        2.9298570794   -1.7445982065    2.0558592225
C        1.8278834622   -1.2264035182    2.7613005473
C        0.7957477030   -0.6018671179    2.0292944706
C        0.8776483535   -0.4847290060    0.6367658008
H        0.0748301561   -0.0057045970    0.0827151255
H       -0.0926448376   -0.2202693051    2.5243671785
C        1.7595380070   -1.3521456080    4.2260588572
O        2.4386596347   -2.1607815522    4.7957903969
O        0.9540626887   -0.5217672158    4.9195987469
H        0.6435407285    0.2201966115    4.3848134531
H        3.7315662506   -2.2416883861    2.5984803131
H        3.8706038228   -2.0242028656    0.1348839719
15   

H        1.9917914343   -0.9392912356   -1.1330658247
C        1.9428055579   -1.0198659149   -0.0503771691
C        2.9616870668   -1.6703961749    0.6501049132
C        2.8991581708   -1.7770338518    2.0443351548
C        1.8214339024   -1.2257537925    2.7626950675
C        0.7944337768   -0.5812689381    2.0399399984
C        0.8580567802   -0.4798259624    0.6450024230
H        0.0601672756    0.0153255655    0.0980784808
H       -0.0754947434   -0.1674587994    2.5406505826
C        1.7842938436   -1.3319329438    4.2312348889
O        2.4463763271   -2.1623277464    4.7902588936
O        1.0071194014   -0.4880788124    4.9361972834
H        0.5258321485    0.1307977126    4.3713620098
H        3.6984684786   -2.2865862417    2.5789348789
H        3.8049749079   -2.0954888910    0.1129514596
