15   

H        1.8845501773   -1.1969426585   -1.1372784119
C        1.8989896756   -1.1487038424   -0.0516632526
C        2.9606941285   -1.7129155225    0.6605965473
C        2.9827613720   -1.6485462814    2.0588609574
C        1.9377439808   -1.0271728222    2.7676298688
C        0.8788116493   -0.4511546931    2.0341132666
C        0.8609934946   -0.5146551851    0.6358223469
H        0.0426240649   -0.0637817030    0.0809008251
H        0.0688828030    0.0726119401    2.5337520108
C        1.9680883683   -0.9741836753    4.2380957310
O        2.9986688411   -1.1458666493    4.8281181973
O        0.8176975165   -0.7689074310    4.9117198680
H        0.0392111191   -0.8750488027    4.3499162352
H        3.8161069191   -2.0883349190    2.6032829927
H        3.7727970754   -2.2011723224    0.1291527208
15   

H        1.8838577135   -1.2620478771   -1.1393029669
C        1.8976850795   -1.2010761182   -0.0543360950
C        2.9498305985   -1.7725909287    0.6665708348
C        2.9717723503   -1.6906361175    2.0641067266
C        1.9363535859   -1.0425349225    2.7629711066
C        0.8871238809   -0.4605203985    2.0206800834
C        0.8687459034   -0.5425071062    0.6235512993
H        0.0577803093   -0.0857917801    0.0625791080
H        0.0864423511    0.0827228639    2.5151240319
C        1.9669687079   -0.9570535557    4.2318023284
O        2.9799005709   -1.1865343014    4.8318113293
O        0.8201727735   -0.6788308861    4.8963827097
H        0.0378198781   -0.9607343381    4.4072733019
H        3.7988992048   -2.1341970418    2.6148244999
H        3.7553464029   -2.2788899083    0.1420860095
15   

H        1.8962134607   -1.3110824284   -1.1454713700
C        1.9060714855   -1.2407518696   -0.0610535137
C        2.9502956442   -1.8145571798    0.6697486515
C        2.9674283794   -1.7197138120    2.0667230138
C        1.9353380468   -1.0548150796    2.7547447270
C        0.8937839889   -0.4722953619    2.0023864894
C        0.8797244740   -0.5676500780    0.6062416489
H        0.0743151744   -0.1095803302    0.0384478661
H        0.0956979333    0.0808676852    2.4904775298
C        1.9609905227   -0.9456727612    4.2222483695
O        2.9519553600   -1.2277853219    4.8353878664
O        0.8187513595   -0.5924102168    4.8733903761
H        0.0425735843   -1.0278828458    4.5047395272
H        3.7893206951   -2.1638248481    2.6246625731
H        3.7538641188   -2.3318118648    0.1531035530
15   

H        1.9225824684   -1.3320180375   -1.1567541849
C        1.9249406879   -1.2589449227   -0.0725086349
C        2.9612627566   -1.8351690335    0.6677657477
C        2.9685563615   -1.7365642084    2.0647266304
C        1.9348661048   -1.0640504638    2.7429804025
C        0.9008632715   -0.4808168879    1.9810175628
C        0.8962142893   -0.5802840592    0.5852458300
H        0.0958837417   -0.1213307425    0.0110795052
H        0.1002072056    0.0740126926    2.4632557596
C        1.9493342915   -0.9460609383    4.2102323805
O        2.9158055587   -1.2749738308    4.8379288803
O        0.8161862423   -0.5120029357    4.8460307092
H        0.0570692655   -1.0667189309    4.6424410287
H        3.7847167158   -2.1821512255    2.6297094699
H        3.7664441197   -2.3569452277    0.1583192748
15   

H        1.9623591443   -1.3202242989   -1.1735337826
C        1.9534611233   -1.2517155778   -0.0890634121
C        2.9811055247   -1.8322580156    0.6599905929
C        2.9731974786   -1.7400855237    2.0575023379
C        1.9333810734   -1.0684793275    2.7273795952
C        0.9078095687   -0.4822334330    1.9565328670
C        0.9179682057   -0.5755720262    0.5604673636
H        0.1229743716   -0.1147713293   -0.0195223573
H        0.1001780204    0.0668876579    2.4337810796
C        1.9291469593   -0.9584922434    4.1957048625
O        2.8728577852   -1.3252648400    4.8365564315
O        0.8133844471   -0.4410311361    4.8144917730
H        0.0849205742   -1.0676986832    4.8165559905
H        3.7823955151   -2.1896151071    2.6291744650
H        3.7910475967   -2.3527617155    0.1569250071
15   

H        2.0135778168   -1.2842105027   -1.1913346455
C        1.9897550739   -1.2268383349   -0.1064814673
C        3.0069953962   -1.8148011445    0.6509812254
C        2.9788251013   -1.7381264742    2.0492588405
C        1.9295942326   -1.0734408706    2.7115496364
C        0.9143350079   -0.4806533134    1.9320852481
C        0.9443223253   -0.5589258625    0.5354444296
H        0.1558153258   -0.0942177656   -0.0501720384
H        0.0967632460    0.0578888429    2.4044913141
C        1.8997871122   -0.9847514010    4.1816005266
O        2.8238530391   -1.3846174627    4.8327035659
O        0.8135777641   -0.3840208727    4.7813433930
H        0.1343895329   -1.0226726858    5.0130015120
H        3.7793506608   -2.1947321580    2.6273222101
H        3.8240418797   -2.3298581953    0.1539319539
15   

H        2.0656463987   -1.2478164558   -1.2061178825
C        2.0254508912   -1.2028349587   -0.1211972729
C        3.0322737587   -1.7973495915    0.6450307829
C        2.9820828480   -1.7377645960    2.0436073010
C        1.9215829099   -1.0825431162    2.6976598251
C        0.9166564985   -0.4839710929    1.9090680229
C        0.9682888079   -0.5455919160    0.5122917882
H        0.1863761933   -0.0775478892   -0.0794101590
H        0.0879574765    0.0426252592    2.3755856307
C        1.8644648008   -1.0160943889    4.1688027370
O        2.7728100942   -1.4446641856    4.8270544181
O        0.8118864082   -0.3497796604    4.7476219735
H        0.2118289264   -0.9483311713    5.2015783603
H        3.7740356882   -2.2007825753    2.6281720190
H        3.8578334244   -2.3050509934    0.1546201473
15   

H        2.1064433674   -1.2277831557   -1.2160938408
C        2.0513954121   -1.1922740838   -0.1314993581
C        3.0492077241   -1.7906792751    0.6434541371
C        2.9792484129   -1.7440912509    2.0417482038
C        1.9083707564   -1.0967995480    2.6869972816
C        0.9123011701   -0.4951397930    1.8893397194
C        0.9832787206   -0.5443381951    0.4929814490
H        0.2071126465   -0.0747693453   -0.1049985972
H        0.0737532235    0.0216049787    2.3493405578
C        1.8283881370   -1.0446122746    4.1582436765
O        2.7179718929   -1.5063816611    4.8231421996
O        0.8069430448   -0.3321011349    4.7179690519
H        0.3143682362   -0.8555188143    5.3592646619
H        3.7640093222   -2.2109502946    2.6327778219
H        3.8828274637   -2.2918205236    0.1600565693
15   

H        2.1402170396   -1.2149184665   -1.2221844602
C        2.0728492054   -1.1849117504   -0.1381351348
C        3.0675984159   -1.7773532210    0.6453726515
C        2.9815060739   -1.7380211215    2.0430607864
C        1.8972877250   -1.1039808849    2.6790793730
C        0.9039580575   -0.5092357074    1.8727610380
C        0.9912436521   -0.5507649449    0.4771381421
H        0.2166862500   -0.0866340308   -0.1271197822
H        0.0540726948   -0.0051807458    2.3261740324
C        1.7990648920   -1.0595077510    4.1496555281
O        2.6824298442   -1.5240885205    4.8235997111
O        0.7732368745   -0.3583201056    4.6950982431
H        0.4261107457   -0.8002211738    5.4800723659
H        3.7636248348   -2.2006911806    2.6407434629
H        3.9111015372   -2.2685760381    0.1690469851
15   

H        2.1602147935   -1.2026490898   -1.2262249222
C        2.0836572049   -1.1781758018   -0.1426555401
C        3.0758579274   -1.7675312640    0.6464471989
C        2.9776948212   -1.7355528170    2.0435566201
C        1.8839172619   -1.1118383371    2.6732783654
C        0.8928553977   -0.5209154439    1.8614180086
C        0.9922310786   -0.5549488450    0.4664183905
H        0.2190218240   -0.0940474509   -0.1420069192
H        0.0348181260   -0.0268455173    2.3105964499
C        1.7732870249   -1.0739648113    4.1431193128
O        2.6438235577   -1.5544947917    4.8245015410
O        0.7398915337   -0.3917709077    4.6809002893
H        0.5372040601   -0.7272520831    5.5655056809
H        3.7575443673   -2.1962098812    2.6456786153
H        3.9265158103   -2.2509411575    0.1749008172
15   

H        2.1791629414   -1.1887964538   -1.2286758982
C        2.0953857724   -1.1690424619   -0.1455496001
C        3.0881204442   -1.7517008880    0.6479196982
C        2.9804281980   -1.7260406882    2.0444825341
C        1.8763466095   -1.1156711027    2.6690369329
C        0.8844929336   -0.5320620409    1.8529606743
C        0.9936016969   -0.5593264115    0.4585647911
H        0.2194863932   -0.1043284258   -0.1531377263
H        0.0178626433   -0.0499576459    2.2987514785
C        1.7556122556   -1.0841983111    4.1380086188
O        2.6168413565   -1.5725990153    4.8267423208
O        0.6983528723   -0.4453050078    4.6712337923
H        0.6316876847   -0.6531752277    5.6154516743
H        3.7601814182   -2.1820480892    2.6502238038
H        3.9462746077   -2.2254186317    0.1801507867
15   

H        2.1947092638   -1.1718835519   -1.2287385274
C        2.1059431416   -1.1574054498   -0.1459280134
C        3.1015682404   -1.7322139568    0.6496834661
C        2.9872630039   -1.7136295787    2.0458506398
C        1.8733528404   -1.1187092069    2.6677264987
C        0.8783351845   -0.5435165743    1.8495569745
C        0.9943545071   -0.5631266407    0.4556079137
H        0.2175710886   -0.1149024374   -0.1577146566
H        0.0034069619   -0.0748170273    2.2934743240
C        1.7453914501   -1.0948628721    4.1361247707
O        2.6008503096   -1.5892390423    4.8282279659
O        0.6573532767   -0.5109993448    4.6661296362
H        0.6999540803   -0.5653297355    5.6333404788
H        3.7687563055   -2.1642673649    2.6533531885
H        3.9667852090   -2.1948489553    0.1838446498
15   

H        2.2007634754   -1.1496480512   -1.2274291756
C        2.1101984262   -1.1421950186   -0.1446947505
C        3.1110378385   -1.7101654691    0.6492425869
C        2.9942791101   -1.7009355367    2.0452819811
C        1.8724214787   -1.1227802034    2.6688101087
C        0.8718576336   -0.5549562206    1.8522308080
C        0.9906680264   -0.5646394274    0.4583949864
H        0.2094913268   -0.1224385810   -0.1537153118
H       -0.0100703334   -0.1005745798    2.2971381691
C        1.7418442730   -1.1091455964    4.1372136933
O        2.5956126918   -1.6110677238    4.8255151724
O        0.6233657383   -0.5811850372    4.6669061589
H        0.7381070498   -0.4603452269    5.6215966941
H        3.7794770422   -2.1470757461    2.6513376244
H        3.9819463554   -2.1607693632    0.1822101334
15   

H        2.2023025653   -1.1263749105   -1.2237943204
C        2.1115894540   -1.1275545500   -0.1410421061
C        3.1179340732   -1.6912767173    0.6488775594
C        3.0009058861   -1.6934859810    2.0448979295
C        1.8731154136   -1.1314118834    2.6726558119
C        0.8666663460   -0.5683754732    1.8599067398
C        0.9860211033   -0.5662023684    0.4660604474
H        0.2002409441   -0.1280834351   -0.1430908861
H       -0.0208905342   -0.1278028763    2.3073806646
C        1.7424952170   -1.1297652323    4.1413428617
O        2.5948125588   -1.6433128635    4.8216728059
O        0.5999815756   -0.6453155250    4.6728259354
H        0.7516274357   -0.3386777537    5.5778857632
H        3.7901919133   -2.1370410571    2.6475650020
H        3.9931449097   -2.1301901511    0.1787489111
15   

H        2.2019021470   -1.1031433322   -1.2186238136
C        2.1113980579   -1.1150612472   -0.1359102133
C        3.1218509857   -1.6790407645    0.6485063702
C        3.0050261891   -1.6953982440    2.0444202150
C        1.8734443574   -1.1471898651    2.6777021742
C        0.8624159512   -0.5845220637    1.8703599123
C        0.9816775888   -0.5681082361    0.4765830595
H        0.1923438245   -0.1307580037   -0.1285295824
H       -0.0293415174   -0.1563478009    2.3213537009
C        1.7438414781   -1.1595802722    4.1464666813
O        2.5896860048   -1.6921495693    4.8182448066
O        0.5891282398   -0.6919400859    4.6844710685
H        0.7563898927   -0.2017431636    5.4991409894
H        3.7973355852   -2.1395978421    2.6426930996
H        3.9999731505   -2.1075269942    0.1741810338
15   

H        2.1945889227   -1.0680400511   -1.2110054317
C        2.1059944488   -1.0933248734   -0.1283475627
C        3.1233626125   -1.6562883058    0.6477357460
C        3.0089989973   -1.6901710247    2.0434663614
C        1.8730779280   -1.1607548624    2.6849596917
C        0.8544998553   -0.5998878115    1.8860018985
C        0.9715605331   -0.5655731231    0.4923039296
H        0.1765957655   -0.1300736085   -0.1067620183
H       -0.0421178208   -0.1883806861    2.3426497842
C        1.7466703787   -1.1927006338    4.1535260743
O        2.5937320746   -1.7315294789    4.8159687824
O        0.5843146081   -0.7355471359    4.7051185344
H        0.7467312763   -0.0720023406    5.3842247046
H        3.8064456426   -2.1340390625    2.6352290423
H        4.0047908576   -2.0707880384    0.1670988198
15   

H        2.1894951643   -1.0233842845   -1.1989664175
C        2.1008099810   -1.0662768801   -0.1168449269
C        3.1199383091   -1.6384876932    0.6500955541
C        3.0051292145   -1.6960053140    2.0449419636
C        1.8677990422   -1.1800208833    2.6945571922
C        0.8468548701   -0.6104805923    1.9050387200
C        0.9641054272   -0.5531863371    0.5120503867
H        0.1671898553   -0.1123341638   -0.0805191797
H       -0.0530153180   -0.2128660642    2.3674463569
C        1.7415377547   -1.2388741136    4.1617086621
O        2.5707483659   -1.8108536126    4.8153960276
O        0.6010843426   -0.7318112742    4.7354542568
H        0.7746778590    0.0717176422    5.2340679807
H        3.8033451919   -2.1476703011    2.6298700264
H        4.0028043332   -2.0423344793    0.1629945166
15   

H        2.1920717579   -0.9607163762   -1.1810338806
C        2.1016508376   -1.0240402524   -0.1000252583
C        3.1210329523   -1.6081222593    0.6575605024
C        3.0035354444   -1.6933354253    2.0506813917
C        1.8639989668   -1.1923100794    2.7077595358
C        0.8421880370   -0.6113953124    1.9279176833
C        0.9619613195   -0.5269486993    0.5364599702
H        0.1641848761   -0.0790390311   -0.0496912040
H       -0.0619994692   -0.2298265973    2.3953244332
C        1.7335388424   -1.2860344471    4.1719997394
O        2.5470548902   -1.8862473052    4.8167177345
O        0.6300298214   -0.7166576198    4.7707461311
H        0.8013009899    0.1859379278    5.0515046476
H        3.8010781780   -2.1553473225    2.6285721983
H        4.0057510918   -2.0005383766    0.1644174077
15   

H        2.1947131529   -0.8991315565   -1.1601231901
C        2.1028533655   -0.9809749711   -0.0804417432
C        3.1217469461   -1.5773764207    0.6681072429
C        3.0019829904   -1.6879211405    2.0591621679
C        1.8614106126   -1.1989158752    2.7232232488
C        0.8393884481   -0.6062376200    1.9525812075
C        0.9613003040   -0.4970450925    0.5629666417
H        0.1632094832   -0.0418571991   -0.0172019384
H       -0.0685720600   -0.2389432727    2.4240375319
C        1.7266404034   -1.3255009760    4.1840133022
O        2.5229630600   -1.9593881536    4.8163580767
O        0.6772146513   -0.6878127990    4.8066287795
H        0.8182109921    0.2612737249    4.8588856084
H        3.7983487521   -2.1607067699    2.6300935612
H        4.0074438404   -1.9605891021    0.1694146591
15   

H        2.1830108899   -0.8600673461   -1.1417206656
C        2.0933064094   -0.9538392062   -0.0627889650
C        3.1134247560   -1.5594268944    0.6765524517
C        2.9963522805   -1.6862101811    2.0663351509
C        1.8580492518   -1.2032881937    2.7385488425
C        0.8338262545   -0.6023331851    1.9771475002
C        0.9530080977   -0.4773822971    0.5885233661
H        0.1534685272   -0.0169976871    0.0144009194
H       -0.0753773988   -0.2442250913    2.4531166549
C        1.7265273604   -1.3498802070    4.1973750642
O        2.5033872645   -2.0224477502    4.8141403649
O        0.7378355067   -0.6540096401    4.8415042669
H        0.8071218129    0.2927487769    4.6857321843
H        3.7932878591   -2.1666372864    2.6302097719
H        3.9978338102   -1.9376176505    0.1716806790
15   

H        2.1509379044   -0.8494506134   -1.1307655630
C        2.0675450265   -0.9481172349   -0.0517307213
C        3.0900779067   -1.5612325862    0.6778201660
C        2.9814288225   -1.6943417432    2.0675336320
C        1.8501612075   -1.2091811751    2.7498293669
C        0.8222668287   -0.6019071123    1.9982587469
C        0.9329656392   -0.4711641778    0.6093157344
H        0.1313002114   -0.0063102540    0.0417373791
H       -0.0843085707   -0.2453586440    2.4800862896
C        1.7320711998   -1.3605416134    4.2090352845
O        2.4827789562   -2.0780719343    4.8083070248
O        0.8064597221   -0.6146808271    4.8726823357
H        0.7703691066    0.2911116053    4.5467541279
H        3.7803544711   -2.1800745084    2.6241480644
H        3.9699926691   -1.9401255372    0.1655829149
15   

H        2.1027269688   -0.8653924589   -1.1266682306
C        2.0293483821   -0.9624629269   -0.0467354667
C        3.0544372659   -1.5830117636    0.6726101317
C        2.9592339704   -1.7133574638    2.0633836286
C        1.8400987174   -1.2169748953    2.7574147827
C        0.8082655864   -0.6034332921    2.0161274592
C        0.9053863353   -0.4761031213    0.6256660215
H        0.1017180229   -0.0061634827    0.0651146336
H       -0.0914796658   -0.2397227028    2.5048524035
C        1.7446223341   -1.3600076061    4.2189671693
O        2.4629092781   -2.1234719283    4.8019672369
O        0.8796570551   -0.5710231832    4.8998162704
H        0.7137027303    0.2641688277    4.4462888539
H        3.7606814255   -2.2034566202    2.6126194489
H        3.9263404583   -1.9689974576    0.1519580717
15   

H        2.0480120570   -0.9007167007   -1.1278406919
C        1.9857051444   -0.9915617418   -0.0466557902
C        3.0099525214   -1.6236544485    0.6634437670
C        2.9296607968   -1.7447855326    2.0557994413
C        1.8277308425   -1.2265522222    2.7612809562
C        0.7955545585   -0.6020466412    2.0293068915
C        0.8773796828   -0.4849684123    0.6367679889
H        0.0745371746   -0.0059573413    0.0827412487
H       -0.0928005669   -0.2204101860    2.5244168748
C        1.7595309640   -1.3521489483    4.2260582469
O        2.4386431647   -2.1607922615    4.7957947108
O        0.9540667574   -0.5217591351    4.9195930511
H        0.6435555903    0.2202057428    4.3848023805
H        3.7314061069   -2.2418412360    2.5983989899
H        3.8703063769   -2.0244679295    0.1347867578
15   

H        1.9918048111   -0.9392895798   -1.1330642572
C        1.9428150468   -1.0198651859   -0.0503758535
C        2.9616924106   -1.6703989027    0.6501091404
C        2.8991584512   -1.7770378039    2.0443391023
C        1.8214333212   -1.2257552352    2.7626956062
C        0.7944372212   -0.5812672277    2.0399376450
C        0.8580652105   -0.4798231330    0.6450004367
H        0.0601786901    0.0153307375    0.0980742474
H       -0.0754922291   -0.1674559495    2.5406457623
C        1.7842871622   -1.3319355372    4.2312349782
O        2.4463606446   -2.1623385220    4.7902618717
O        1.0071228433   -0.4880721497    4.9361936299
H        0.5258446077    0.1308077647    4.3713537733
H        3.6984653089   -2.2865929999    2.5789413091
H        3.8049808759   -2.0954934052    0.1129580876
