15   

H        2.1271726850   -1.0610786722   -1.2209014368
C        1.9701893418   -1.0475315873   -0.1458266870
C        3.0517428003   -1.2090829945    0.7250385077
C        2.8496089340   -1.1921315220    2.1114825651
C        1.5750277870   -1.0076546219    2.6408534493
C        0.4892323885   -0.8565628976    1.7591071976
C        0.6850926691   -0.8725832369    0.3736033261
H       -0.1620509989   -0.7512141302   -0.2955391998
H       -0.5139331326   -0.7261679300    2.1592566046
C        1.3363210858   -1.0078906867    4.1002309048
O        0.2532050539   -1.1124340541    4.6203452440
O        2.4619712488   -0.8943564980    4.8444927205
H        2.1478114869   -0.9108014754    5.7603530378
H        3.7101015853   -1.3264402317    2.7620975179
H        4.0522054278   -1.3500603625    0.3259772652
15   

H        2.1246485231   -1.0335635304   -1.2187925180
C        1.9683901489   -1.0309865323   -0.1435314688
C        3.0460752269   -1.2339545387    0.7240822387
C        2.8439259868   -1.2315912278    2.1105048385
C        1.5758537613   -1.0141836917    2.6412106212
C        0.4920512386   -0.8312682679    1.7648207740
C        0.6874142883   -0.8324208146    0.3789799184
H       -0.1568496311   -0.6835805205   -0.2882391291
H       -0.5072635933   -0.6894668945    2.1703980484
C        1.3412581693   -1.0533494998    4.1018494937
O        0.3073782575   -1.3862224383    4.6242210238
O        2.4261640933   -0.7148647805    4.8376126972
H        2.1291423077   -0.7919424401    5.7560191921
H        3.6941601689   -1.4007018914    2.7666506051
H        4.0421696008   -1.3970819278    0.3225631906
15   

H        2.1177426945   -1.0081006828   -1.2164918536
C        1.9639239992   -1.0165799725   -0.1409094173
C        3.0381733325   -1.2615964429    0.7207676636
C        2.8382729610   -1.2736887314    2.1073345668
C        1.5785464729   -1.0245832249    2.6418253198
C        0.4961196487   -0.8062767193    1.7737751756
C        0.6889180663   -0.7926026991    0.3874311474
H       -0.1526122165   -0.6144376017   -0.2760265396
H       -0.4980991937   -0.6504490173    2.1861078943
C        1.3535898644   -1.0994205047    4.1052576715
O        0.4186272776   -1.6454773707    4.6319184925
O        2.3541118850   -0.5472477528    4.8298458706
H        2.0884353356   -0.6796632283    5.7514328911
H        3.6787901745   -1.4750721364    2.7669369477
H        4.0284908233   -1.4467014851    0.3145350602
15   

H        2.1067580196   -0.9837227116   -1.2155329503
C        1.9581497824   -1.0062199103   -0.1394203300
C        3.0296482187   -1.2973252053    0.7117951662
C        2.8360243652   -1.3272288295    2.0988935466
C        1.5870257975   -1.0499551465    2.6422064415
C        0.5058423160   -0.7862389462    1.7866937662
C        0.6923838155   -0.7543484161    0.3996215460
H       -0.1466331026   -0.5407448183   -0.2565001125
H       -0.4808899682   -0.6098326906    2.2079243435
C        1.3771931461   -1.1498765936    4.1105319093
O        0.5893773061   -1.8830917488    4.6473898020
O        2.2370214251   -0.3837708116    4.8190334016
H        2.0121163045   -0.5563638955    5.7446870016
H        3.6699156221   -1.5622542718    2.7556310153
H        4.0120814959   -1.5040849666    0.2969615225
15   

H        2.0896322439   -0.9507831495   -1.2157587542
C        1.9514573975   -0.9933068550   -0.1388602797
C        3.0217375011   -1.3390424920    0.6934663387
C        2.8415350846   -1.3943120820    2.0815637010
C        1.6068433651   -1.0943036303    2.6431602318
C        0.5275851843   -0.7671011597    1.8080148950
C        0.7008694475   -0.7096630233    0.4199578315
H       -0.1361606743   -0.4497337217   -0.2218134595
H       -0.4463774953   -0.5603584233    2.2442969806
C        1.4183744819   -1.2028470139    4.1181755102
O        0.8236908824   -2.0837035743    4.6786892923
O        2.0538387042   -0.2230548860    4.7977133319
H        1.8721206277   -0.4131434372    5.7292834940
H        3.6732250522   -1.6688462473    2.7254172204
H        3.9926299544   -1.5674523700    0.2631001061
15   

H        2.0780869908   -0.9098243451   -1.2148585630
C        1.9525836249   -0.9734703062   -0.1374504707
C        3.0178276127   -1.3854870524    0.6707002959
C        2.8537545594   -1.4680159714    2.0594546257
C        1.6377601395   -1.1415041076    2.6452017903
C        0.5679592555   -0.7298465516    1.8353318442
C        0.7247768390   -0.6452627719    0.4467129769
H       -0.1065116626   -0.3263703051   -0.1756231603
H       -0.3858863638   -0.4777532087    2.2914384430
C        1.4730089987   -1.2405544486    4.1258747246
O        1.1012532053   -2.2147593928    4.7218263265
O        1.7928617937   -0.0917295668    4.7602205539
H        1.6470298857   -0.2803558206    5.6983167546
H        3.6824125059   -1.7907056430    2.6845547637
H        3.9726394243   -1.6427916636    0.2210765761
15   

H        2.0619302436   -0.8790566650   -1.2142895541
C        1.9514686750   -0.9557194019   -0.1360829629
C        3.0114374726   -1.4250735078    0.6471003230
C        2.8664447572   -1.5247666222    2.0368281587
C        1.6710777304   -1.1693990617    2.6487218174
C        0.6126013429   -0.6836260486    1.8642038251
C        0.7500725600   -0.5820623938    0.4747095373
H       -0.0749039950   -0.2118279754   -0.1272519530
H       -0.3175994885   -0.3865760633    2.3416171910
C        1.5383119488   -1.2544280516    4.1318157707
O        1.4097146879   -2.2666544531    4.7662480239
O        1.5123422206   -0.0369498007    4.7172162499
H        1.4069715846   -0.2213643946    5.6615987089
H        3.6920750773   -1.8895790041    2.6426998629
H        3.9478276991   -1.7126201158    0.1774806455
15   

H        2.0487298444   -0.8846242301   -1.2172495685
C        1.9501740882   -0.9588621039   -0.1377211845
C        3.0022855093   -1.4686827934    0.6303329960
C        2.8726607065   -1.5653425127    2.0217252364
C        1.6979208442   -1.1710126480    2.6518016138
C        0.6503158413   -0.6382451197    1.8810795914
C        0.7728995357   -0.5398096188    0.4900032400
H       -0.0447255093   -0.1354394214   -0.0999005895
H       -0.2602929022   -0.3018303904    2.3702880997
C        1.5964290045   -1.2427548451    4.1339544843
O        1.7085418184   -2.2410864406    4.7950790157
O        1.2701930828   -0.0543575856    4.6902090636
H        1.2134954427   -0.2365881621    5.6392945835
H        3.6927052067   -1.9612273379    2.6159950024
H        3.9210371774   -1.7898453207    0.1478211023
15   

H        2.0333498372   -0.9131390538   -1.2227800060
C        1.9445733407   -0.9746805227   -0.1416054511
C        2.9880044237   -1.5117237220    0.6193109563
C        2.8713850995   -1.5919213787    2.0127836059
C        1.7174240984   -1.1528007744    2.6543384806
C        0.6776845026   -0.5944680009    1.8881687434
C        0.7885151737   -0.5127294031    0.4950169997
H       -0.0224155585   -0.0880430076   -0.0898376317
H       -0.2191257818   -0.2252949730    2.3794621055
C        1.6441545613   -1.2154775829    4.1344176728
O        1.9849076384   -2.1537229375    4.8074671940
O        1.0719153455   -0.1194310736    4.6837246771
H        1.0702280512   -0.2973975177    5.6354224479
H        3.6854930606   -2.0097991041    2.6006358679
H        3.8902885133   -1.8671378970    0.1297723015
15   

H        2.0177223885   -0.9530368333   -1.2296518623
C        1.9381297261   -0.9963320068   -0.1468785863
C        2.9725888489   -1.5530640737    0.6115626957
C        2.8683765349   -1.6096800419    2.0070876944
C        1.7361895746   -1.1234446828    2.6558132027
C        0.7023989270   -0.5506980930    1.8890977469
C        0.8022478386   -0.4928385252    0.4939291368
H       -0.0027047011   -0.0551325625   -0.0896006610
H       -0.1835687040   -0.1515299842    2.3766158775
C        1.6838699788   -1.1792633719    4.1339537702
O        2.2303402313   -2.0124054923    4.8120087637
O        0.9059993207   -0.2184886961    4.6851760613
H        0.9565252665   -0.3832749486    5.6379990246
H        3.6777041876   -2.0441225133    2.5899189394
H        3.8587784921   -1.9425881395    0.1185779047
15   

H        1.9967627231   -0.9985477969   -1.2355065382
C        1.9271957965   -1.0218986910   -0.1514281681
C        2.9532645532   -1.5945606093    0.6058808655
C        2.8626774277   -1.6251127168    2.0031200482
C        1.7537231703   -1.0925346466    2.6572694761
C        0.7245645078   -0.5100177163    1.8889145344
C        0.8119461253   -0.4783013478    0.4920859070
H        0.0122857197   -0.0302768650   -0.0909037817
H       -0.1498603615   -0.0810711834    2.3718319375
C        1.7167859944   -1.1395533839    4.1348693982
O        2.4373567390   -1.8226228019    4.8195694351
O        0.7649438601   -0.3496927364    4.6851528481
H        0.8586696448   -0.4877609995    5.6390137741
H        3.6683854229   -2.0734521359    2.5805921125
H        3.8229863610   -2.0170558843    0.1107122751
15   

H        1.9716837996   -1.0475018889   -1.2388639964
C        1.9132133573   -1.0499015079   -0.1538816195
C        2.9316319780   -1.6363231730    0.6029275435
C        2.8559176633   -1.6392787990    2.0013721641
C        1.7711758701   -1.0614683951    2.6583320889
C        0.7462428379   -0.4710201701    1.8892632665
C        0.8193502548   -0.4666599289    0.4912754733
H        0.0247347037   -0.0093774816   -0.0914311693
H       -0.1134979854   -0.0118416341    2.3706635475
C        1.7452535820   -1.0947464362    4.1362315885
O        2.6010901807   -1.5895811598    4.8276185173
O        0.6531705148   -0.5093032951    4.6816360760
H        0.7779855386   -0.6089906173    5.6367401789
H        3.6566943161   -2.0997823845    2.5761518048
H        3.7841533900   -2.0910886434    0.1064277961
15   

H        1.9428074381   -1.0963267460   -1.2386206658
C        1.8962402413   -1.0779964955   -0.1532146433
C        2.9074101117   -1.6776607095    0.6032335726
C        2.8472829559   -1.6530115717    2.0022310415
C        1.7877701653   -1.0308317694    2.6592356365
C        0.7669183078   -0.4332593900    1.8913607147
C        0.8243396898   -0.4558381428    0.4928026331
H        0.0346390329    0.0102373898   -0.0896114379
H       -0.0752456247    0.0541536020    2.3761407440
C        1.7680236527   -1.0466950957    4.1378279895
O        2.7114770644   -1.3258307833    4.8353945750
O        0.5776459674   -0.6891347657    4.6743415143
H        0.7186848600   -0.7414562176    5.6309336588
H        3.6406251052   -2.1237624580    2.5789887235
H        3.7419410298   -2.1639322119    0.1060330213
15   

H        1.9153630353   -1.1385436046   -1.2355603864
C        1.8803406174   -1.1010638252   -0.1502142980
C        2.8824905002   -1.7163504164    0.6063618307
C        2.8371716160   -1.6662333475    2.0052864486
C        1.8045831785   -0.9994947031    2.6597614547
C        0.7894751676   -0.3928892708    1.8941245047
C        0.8314050003   -0.4399967738    0.4956125227
H        0.0476180450    0.0360679665   -0.0866953841
H       -0.0337989623    0.1198989102    2.3852616940
C        1.7840533419   -0.9976994261    4.1397371598
O        2.7616547916   -1.0494982360    4.8426783265
O        0.5419959858   -0.8781760410    4.6641648873
H        0.6825994338   -0.8797143656    5.6221874780
H        3.6205530393   -2.1476985946    2.5866198533
H        3.6978778766   -2.2341901796    0.1092899106
15   

H        1.8897886149   -1.1733138177   -1.2310668715
C        1.8653334984   -1.1182857538   -0.1461793673
C        2.8555601026   -1.7517524912    0.6116653736
C        2.8236111673   -1.6785019759    2.0100256110
C        1.8194261163   -0.9679417384    2.6602269800
C        0.8133138227   -0.3486653382    1.8959986712
C        0.8408627615   -0.4178579002    0.4980394781
H        0.0649276328    0.0702519052   -0.0847946480
H        0.0095088338    0.1890619323    2.3926610327
C        1.7934632355   -0.9448832003    4.1430370010
O        2.7502839752   -0.7666230362    4.8516483970
O        0.5468244642   -1.0710584770    4.6534147416
H        0.6707407611   -1.0213924893    5.6123629089
H        3.5954052074   -2.1730661698    2.5954349197
H        3.6506076249   -2.3015123701    0.1159361882
15   

H        1.8737429285   -1.2017558805   -1.2273508118
C        1.8548466524   -1.1316258990   -0.1432240905
C        2.8265002944   -1.7872610266    0.6201857342
C        2.8015836751   -1.6941567534    2.0176222523
C        1.8244835839   -0.9416422295    2.6591073548
C        0.8359085130   -0.3018941605    1.8917927451
C        0.8555586002   -0.3900064545    0.4947745561
H        0.0933617121    0.1148167949   -0.0919297038
H        0.0524888252    0.2650267992    2.3883431832
C        1.7910699962   -0.8900048866    4.1451899715
O        2.6770102737   -0.4859195492    4.8509845332
O        0.5974343172   -1.2736056426    4.6513731519
H        0.6956733412   -1.1750419557    5.6094024950
H        3.5577809322   -2.2057526189    2.6082064634
H        3.6011911876   -2.3695065733    0.1293579942
15   

H        1.8760004817   -1.2160199857   -1.2250223853
C        1.8528371326   -1.1344711964   -0.1417765037
C        2.7940678700   -1.8190155053    0.6345526535
C        2.7635605273   -1.7112254378    2.0308891714
C        1.8088804705   -0.9196584023    2.6566764989
C        0.8546025346   -0.2450454650    1.8781733090
C        0.8795091207   -0.3474839149    0.4821812196
H        0.1425706506    0.1823028713   -0.1146982748
H        0.0943232804    0.3599552848    2.3653953846
C        1.7699864762   -0.8345619914    4.1451889787
O        2.5399579867   -0.2183024690    4.8314923067
O        0.7111927782   -1.4888808634    4.6709685616
H        0.7854345815   -1.3477813365    5.6257193263
H        3.4961589987   -2.2446403922    2.6313906194
H        3.5494060890   -2.4346846280    0.1544817657
15   

H        1.9106461255   -1.2132800237   -1.2245240765
C        1.8684751488   -1.1259020278   -0.1423056148
C        2.7633787730   -1.8466283289    0.6560121876
C        2.7082077333   -1.7317931572    2.0510529156
C        1.7676188039   -0.9061614372    2.6526979286
C        0.8706337055   -0.1813080404    1.8528038641
C        0.9201927704   -0.2911097517    0.4579934808
H        0.2238363170    0.2723215212   -0.1565536170
H        0.1363157176    0.4686374589    2.3215828048
C        1.7235761227   -0.7864501195    4.1403386036
O        2.3327034541    0.0170083868    4.7929140153
O        0.9060155292   -1.6989683978    4.7090249199
H        0.9623979287   -1.5211191059    5.6587943385
H        3.4062958237   -2.2911158112    2.6686158583
H        3.5024427080   -2.4949348341    0.1939343540
15   

H        1.9514543922   -1.2012054684   -1.2237349707
C        1.8846807682   -1.1143280271   -0.1427148645
C        2.7255907967   -1.8757531991    0.6763713885
C        2.6387882206   -1.7617532588    2.0698602660
C        1.7112776663   -0.9050374246    2.6491887030
C        0.8813198747   -0.1260254589    1.8284343027
C        0.9625969475   -0.2353329650    0.4350661182
H        0.3135439165    0.3652690223   -0.1958542176
H        0.1751384492    0.5660199635    2.2801740967
C        1.6627576143   -0.7599503163    4.1322825295
O        2.0749834754    0.1840236460    4.7509227253
O        1.1552666638   -1.8515446748    4.7458407988
H        1.1939136423   -1.6422635036    5.6901320063
H        3.2972815833   -2.3501730991    2.7037160466
H        3.4482904581   -2.5539652073    0.2316782424
15   

H        1.9884298591   -1.1981703953   -1.2223632736
C        1.8991815732   -1.1130890289   -0.1428241085
C        2.6940523555   -1.9055293310    0.6924230732
C        2.5786730363   -1.7936296870    2.0840381168
C        1.6632396550   -0.9118325715    2.6466059170
C        0.8864699260   -0.0964243009    1.8086656036
C        0.9963900932   -0.2033953594    0.4171704252
H        0.3858239666    0.4242318562   -0.2257639387
H        0.1995249284    0.6232894400    2.2472014229
C        1.5962129775   -0.7529458054    4.1231748595
O        1.7812220763    0.2768979128    4.7161909590
O        1.3882907315   -1.9219336488    4.7700387473
H        1.3892651465   -1.6851635969    5.7087315969
H        3.2045961589   -2.4055577198    2.7287706347
H        3.4041899483   -2.6057731097    0.2618711719
15   

H        2.0149243532   -1.1944398482   -1.2224268825
C        1.9110604026   -1.1123857448   -0.1439608105
C        2.6681568781   -1.9321815053    0.6994086004
C        2.5343863698   -1.8244260447    2.0897928548
C        1.6372779206   -0.9181442789    2.6452156359
C        0.8985687203   -0.0769148938    1.7970067091
C        1.0272068184   -0.1795192423    0.4069590244
H        0.4454545338    0.4694441012   -0.2415029864
H        0.2252644870    0.6605095431    2.2278642939
C        1.5411089085   -0.7595789055    4.1160822823
O        1.4896697931    0.2955813614    4.6937461185
O        1.5886670398   -1.9344712861    4.7856592079
H        1.5340335318   -1.6844119132    5.7194289939
H        3.1353290156   -2.4599927742    2.7355657510
H        3.3639642206   -2.6510301130    0.2761753778
15   

H        2.0401946361   -1.1866196297   -1.2236675173
C        1.9256914972   -1.1083695179   -0.1459961406
C        2.6489166299   -1.9537291692    0.7011562506
C        2.5017305012   -1.8517560583    2.0907516065
C        1.6270662862   -0.9213713044    2.6441669162
C        0.9177645445   -0.0597439968    1.7893953090
C        1.0602906646   -0.1566530685    0.4005044326
H        0.5019701023    0.5104055082   -0.2502084534
H        0.2537800532    0.6897799044    2.2143296629
C        1.4956755607   -0.7734985858    4.1107632085
O        1.2113619973    0.2520745689    4.6764041840
O        1.7685949870   -1.9065850514    4.7996538645
H        1.6505438771   -1.6593127558    5.7283915814
H        3.0806698622   -2.5125373050    2.7312367424
H        3.3291010347   -2.6893832815    0.2814012060
15   

H        2.0648571970   -1.1740126539   -1.2244985005
C        1.9406988370   -1.1009767964   -0.1475289215
C        2.6308897476   -1.9717989460    0.7007447596
C        2.4713793375   -1.8776009104    2.0896492677
C        1.6211153547   -0.9241296484    2.6435138879
C        0.9377960237   -0.0436260157    1.7850007534
C        1.0931466415   -0.1330620849    0.3971584527
H        0.5565635734    0.5511394644   -0.2540568900
H        0.2815452481    0.7154860825    2.2051759538
C        1.4546566499   -0.7934309211    4.1070616868
O        0.9511186087    0.1524007142    4.6606327138
O        1.9392453984   -1.8416992519    4.8143178141
H        1.7608640125   -1.6120721593    5.7380160305
H        3.0265220253   -2.5652988641    2.7226377114
H        3.2946147108   -2.7230494309    0.2822452419
15   

H        2.0869134022   -1.1573567889   -1.2238971949
C        1.9531978465   -1.0915837421   -0.1476030389
C        2.6109762897   -1.9883131075    0.6991181651
C        2.4389648236   -1.9040534453    2.0872114912
C        1.6135344168   -0.9298471498    2.6431869150
C        0.9544077538   -0.0303193566    1.7846256617
C        1.1225171828   -0.1098426618    0.3977283186
H        0.6071071140    0.5915443969   -0.2523109622
H        0.3061436681    0.7364525284    2.2033544903
C        1.4158270656   -0.8205743991    4.1043664813
O        0.7150869652    0.0001981621    4.6434598662
O        2.0995468358   -1.7382239436    4.8286323123
H        1.8698878514   -1.5386220844    5.7479960404
H        2.9660070512   -2.6178585302    2.7151962450
H        3.2580459037   -2.7535749662    0.2799109629
