15   

H        2.1271729882   -1.0610757049   -1.2209014080
C        1.9701895604   -1.0475291867   -0.1458266648
C        3.0517428498   -1.2090818560    0.7250384950
C        2.8496089340   -1.1921315220    2.1114825651
C        1.5750277870   -1.0076546219    2.6408534493
C        0.4892325378   -0.8565615192    1.7591072338
C        0.6850929203   -0.8725807311    0.3736033694
H       -0.1620506578   -0.7512109578   -0.2955391492
H       -0.5139330264   -0.7261668415    2.1592566115
C        1.3363210858   -1.0078906867    4.1002309048
O        0.2532050539   -1.1124340541    4.6203452440
O        2.4619734579   -0.8943814582    4.8444932906
H        2.1478007387   -0.9106857614    5.7603516666
H        3.7101017000   -1.3264421249    2.7620970030
H        4.0522053958   -1.3500597693    0.3259772365
15   

H        2.1246495954   -1.0335584358   -1.2187924348
C        1.9683908934   -1.0309823698   -0.1435314332
C        3.0460755428   -1.2339524409    0.7240822905
C        2.8439259868   -1.2315912278    2.1105048385
C        1.5758537613   -1.0141836917    2.6412106212
C        0.4920515189   -0.8312665118    1.7648206921
C        0.6874149683   -0.8324169767    0.3789798810
H       -0.1568487338   -0.6835760408   -0.2882392979
H       -0.5072636309   -0.6894664055    2.1703975409
C        1.3412581693   -1.0533494998    4.1018494937
O        0.3073782575   -1.3862224383    4.6242210238
O        2.4261759024   -0.7149028268    4.8376133140
H        2.1290457469   -0.7916187850    5.7560149815
H        3.6941599737   -1.4007060578    2.7666499837
H        4.0421698304   -1.3970809154    0.3225634641
15   

H        2.1177449270   -1.0080961136   -1.2164917932
C        1.9639255288   -1.0165761739   -0.1409094666
C        3.0381742143   -1.2615943212    0.7207678678
C        2.8382729610   -1.2736887314    2.1073345668
C        1.5785464729   -1.0245832249    2.6418253198
C        0.4961199584   -0.8062761922    1.7737746485
C        0.6889192363   -0.7926000450    0.3874307137
H       -0.1526107110   -0.6144353020   -0.2760274914
H       -0.4980997718   -0.6504511912    2.1861060374
C        1.3535898644   -1.0994205047    4.1052576715
O        0.4186272776   -1.6454773707    4.6319184925
O        2.3541363101   -0.5472898744    4.8298454105
H        2.0881485073   -0.6791242319    5.7514258254
H        3.6787888651   -1.4750766030    2.7669377785
H        4.0284918296   -1.4467004973    0.3145360803
15   

H        2.1067605099   -0.9837238325   -1.2155332348
C        1.9581513927   -1.0062205119   -0.1394207289
C        3.0296493903   -1.2973250269    0.7117954502
C        2.8360243652   -1.3272288295    2.0988935466
C        1.5870257975   -1.0499551465    2.6422064415
C        0.5058421984   -0.7862417762    1.7866925471
C        0.6923847011   -0.7543509770    0.3996203748
H       -0.1466320515   -0.5407499401   -0.2565023236
H       -0.4808916707   -0.6098394469    2.2079206987
C        1.3771931461   -1.1498765936    4.1105319093
O        0.5893773061   -1.8830917488    4.6473898020
O        2.2370599949   -0.3838118334    4.8190324204
H        2.0116244088   -0.5557873545    5.7446717636
H        3.6699136879   -1.5622553971    2.7556338210
H        4.0120832254   -1.5040851383    0.2969633062
15   

H        2.0896330539   -0.9507905408   -1.2157595630
C        1.9514577156   -0.9933124295   -0.1388610828
C        3.0217380888   -1.3390446770    0.6934664386
C        2.8415350846   -1.3943120820    2.0815637010
C        1.6068433651   -1.0943036303    2.6431602318
C        0.5275842305   -0.7671068661    1.8080133832
C        0.7008689149   -0.7096707709    0.4199562019
H       -0.1361615571   -0.4497455526   -0.2218162819
H       -0.4463802079   -0.5603678014    2.2442929096
C        1.4183744819   -1.2028470139    4.1181755102
O        0.8236908824   -2.0837035743    4.6786892923
O        2.0538799402   -0.2230817066    4.7977142083
H        1.8716596474   -0.4128218025    5.7292572345
H        3.6732241593   -1.6688434475    2.7254200958
H        3.9926313262   -1.5674539018    0.2631016316
15   

H        2.0780868576   -0.9098248044   -1.2148586114
C        1.9525835159   -0.9734706669   -0.1374505098
C        3.0178275714   -1.3854871766    0.6707002840
C        2.8537545594   -1.4680159714    2.0594546257
C        1.6377601395   -1.1415041076    2.6452017903
C        0.5679591431   -0.7298469111    1.8353318019
C        0.7247766853   -0.6452632754    0.4467129215
H       -0.1065118801   -0.3263710439   -0.1756232516
H       -0.3858865454   -0.4777537204    2.2914383348
C        1.4730089987   -1.2405544486    4.1258747246
O        1.1012532053   -2.2147593928    4.7218263265
O        1.7928660484   -0.0917309601    4.7602209316
H        1.6470276941   -0.2803550990    5.6983165570
H        3.6824125414   -1.7907054568    2.6845548182
H        3.9726394154   -1.6427916957    0.2210765808
15   

H        2.0619299961   -0.8790496579   -1.2142884437
C        1.9514688723   -0.9557139328   -0.1360819174
C        3.0114372419   -1.4250710320    0.6471003788
C        2.8664447572   -1.5247666222    2.0368281587
C        1.6710777304   -1.1693990617    2.6487218174
C        0.6126023743   -0.6836220568    1.8642054390
C        0.7500734019   -0.5820559921    0.4747113906
H       -0.0749029864   -0.2118190009   -0.1272487453
H       -0.3175967886   -0.3865710634    2.3416220787
C        1.5383119488   -1.2544280516    4.1318157707
O        1.4097146879   -2.2666544531    4.7662480239
O        1.5123007687   -0.0369476051    4.7172106806
H        1.4075074167   -0.2213765774    5.6616544999
H        3.6920747572   -1.8895828410    2.6426977249
H        3.9478265541   -1.7126185653    0.1774794469
15   

H        2.0487282392   -0.8846210671   -1.2172488912
C        1.9501732739   -0.9588595814   -0.1377204799
C        3.0022849965   -1.4686811775    0.6303329505
C        2.8726607065   -1.5653425127    2.0217252364
C        1.6979208442   -1.1710126480    2.6518016138
C        0.6503152182   -0.6382454132    1.8810806567
C        0.7728985222   -0.5398082863    0.4900044857
H       -0.0447275896   -0.1354385470   -0.0998981818
H       -0.2602933466   -0.3018335305    2.3702924098
C        1.5964290045   -1.2427548451    4.1339544843
O        1.7085418184   -2.2410864406    4.7950790157
O        1.2701425800   -0.0543672004    4.6902017673
H        1.2142090008   -0.2364196049    5.6393666668
H        3.6927049552   -1.9612305377    2.6159929647
H        3.9210358485   -1.7898441854    0.1478198216
15   

H        2.0333481342   -0.9131400129   -1.2227800162
C        1.9445722734   -0.9746812015   -0.1416053929
C        2.9880040980   -1.5117233249    0.6193108856
C        2.8713850995   -1.5919213787    2.0127836059
C        1.7174240984   -1.1528007744    2.6543384806
C        0.6776825092   -0.5944718218    1.8881686868
C        0.7885130099   -0.5127327468    0.4950170252
H       -0.0224195671   -0.0880493308   -0.0898372164
H       -0.2191297480   -0.2253042282    2.3794632716
C        1.6441545613   -1.2154775829    4.1344176728
O        1.9849076384   -2.1537229375    4.8074671940
O        1.0718748277   -0.1194488736    4.6837195187
H        1.0708128991   -0.2971125940    5.6354746105
H        3.6854929583   -2.0098006786    2.6006347350
H        3.8902878878   -1.8671374538    0.1297716427
15   

H        2.0177215281   -0.9530386267   -1.2296521028
C        1.9381291607   -0.9963333319   -0.1468787853
C        2.9725888636   -1.5530640997    0.6115626679
C        2.8683765349   -1.6096800419    2.0070876944
C        1.7361895746   -1.1234446828    2.6558132027
C        0.7023971117   -0.5507017903    1.8890972568
C        0.8022461225   -0.4928421897    0.4939286872
H       -0.0027079780   -0.0551391319   -0.0896011405
H       -0.1835729135   -0.1515383802    2.3766152346
C        1.6838699788   -1.1792633719    4.1339537702
O        2.2303402313   -2.0124054923    4.8120087637
O        0.9059726590   -0.2185083115    4.6851733924
H        0.9568718245   -0.3830068068    5.6380261381
H        3.6777040748   -2.0441232040    2.5899185149
H        3.8587785251   -1.9425879999    0.1185777755
15   

H        1.9967623168   -0.9985490197   -1.2355066834
C        1.9271955243   -1.0218995703   -0.1514282990
C        2.9532645989   -1.5945607289    0.6058808609
C        2.8626774277   -1.6251127168    2.0031200482
C        1.7537231703   -1.0925346466    2.6572694761
C        0.7245635401   -0.5100196589    1.8889142464
C        0.8119452202   -0.4783033922    0.4920856296
H        0.0122839899   -0.0302804970   -0.0909041505
H       -0.1498626970   -0.0810754813    2.3718313447
C        1.7167859944   -1.1395533839    4.1348693982
O        2.4373567390   -1.8226228019    4.8195694351
O        0.7649311272   -0.3497072891    4.6851518986
H        0.8588006983   -0.4876085514    5.6390228246
H        3.6683853421   -2.0734523556    2.5805920399
H        3.8229864710   -2.0170559165    0.1107123058
15   

H        1.9716837953   -1.0475018231   -1.2388639959
C        1.9132133535   -1.0499014685   -0.1538816181
C        2.9316319653   -1.6363231605    0.6029275379
C        2.8559176633   -1.6392787990    2.0013721641
C        1.7711758701   -1.0614683951    2.6583320889
C        0.7462428348   -0.4710201639    1.8892632714
C        0.8193502539   -0.4666598924    0.4912754767
H        0.0247347096   -0.0093774301   -0.0914311598
H       -0.1134979993   -0.0118416455    2.3706635482
C        1.7452535820   -1.0947464362    4.1362315885
O        2.6010901807   -1.5895811598    4.8276185173
O        0.6531705553   -0.5093032186    4.6816360745
H        0.7779856620   -0.6089903835    5.6367401859
H        3.6566943188   -2.0997823985    2.5761517897
H        3.7841533619   -2.0910886371    0.1064277705
15   

H        1.9428083285   -1.0963257001   -1.2386207466
C        1.8962408792   -1.0779957708   -0.1532147298
C        2.9074102620   -1.6776606665    0.6032335768
C        2.8472829559   -1.6530115717    2.0022310415
C        1.7877701653   -1.0308317694    2.6592356365
C        0.7669194291   -0.4332575560    1.8913605374
C        0.8243409531   -0.4558362940    0.4928024683
H        0.0346411937    0.0102407621   -0.0896116037
H       -0.0752432623    0.0541578218    2.3761404033
C        1.7680236527   -1.0466950957    4.1378279895
O        2.7114770644   -1.3258307833    4.8353945750
O        0.5776514756   -0.6891162751    4.6743416094
H        0.7186256093   -0.7416486560    5.6309317207
H        3.6406252470   -2.1237622647    2.5789886717
H        3.7419411656   -2.1639322458    0.1060330750
15   

H        1.9153641105   -1.1385419033   -1.2355605129
C        1.8803414401   -1.1010626400   -0.1502144150
C        2.8824905321   -1.7163504140    0.6063618071
C        2.8371716160   -1.6662333475    2.0052864486
C        1.8045831785   -0.9994947031    2.6597614547
C        0.7894773161   -0.3928857778    1.8941242421
C        0.8314071759   -0.4399933852    0.4956122962
H        0.0476218343    0.0360741982   -0.0866954612
H       -0.0337941401    0.1199069043    2.3852615619
C        1.7840533419   -0.9976994261    4.1397371598
O        2.7616547916   -1.0494982360    4.8426783265
O        0.5419984181   -0.8781428731    4.6641638934
H        0.6825569527   -0.8801511550    5.6221921277
H        3.6205535748   -2.1476981006    2.5866194745
H        3.6978777904   -2.2341902625    0.1092897826
15   

H        1.8897885489   -1.1733116720   -1.2310667828
C        1.8653335150   -1.1182843676   -0.1461792380
C        2.8555595808   -1.7517523746    0.6116652845
C        2.8236111673   -1.6785019759    2.0100256110
C        1.8194261163   -0.9679417384    2.6602269800
C        0.8133159842   -0.3486615973    1.8959988816
C        0.8408644405   -0.4178541957    0.4980397535
H        0.0649308384    0.0702587728   -0.0847937642
H        0.0095145026    0.1890701457    2.3926628076
C        1.7934632355   -0.9448832003    4.1430370010
O        2.7502839752   -0.7666230362    4.8516483970
O        0.5468180391   -1.0710145668    4.6534115589
H        0.6708105662   -1.0220411213    5.6123853506
H        3.5954065071   -2.1730652269    2.5954338466
H        3.6506068898   -2.3015120132    0.1159354920
15   

H        1.8737394280   -1.2017561240   -1.2273502454
C        1.8548440977   -1.1316265079   -0.1432234846
C        2.8264986700   -1.7872614043    0.6201856206
C        2.8015836751   -1.6941567534    2.0176222523
C        1.8244835839   -0.9416422295    2.6591073548
C        0.8359084239   -0.3018934888    1.8917938471
C        0.8555569349   -0.3900062904    0.4947757707
H        0.0933598527    0.1148180827   -0.0919272721
H        0.0524911646    0.2650286883    2.3883476665
C        1.7910699962   -0.8900048866    4.1451899715
O        2.6770102737   -0.4859195492    4.8509845332
O        0.5974157073   -1.2735575031    4.6513677009
H        0.6959096766   -1.1757383929    5.6094470339
H        3.5577835531   -2.2057506146    2.6082045891
H        3.6011895718   -2.3695059257    0.1293566826
15   

H        1.8759943383   -1.2160234890   -1.2250215995
C        1.8528325521   -1.1344742730   -0.1417757176
C        2.7940656192   -1.8190166101    0.6345525893
C        2.7635605273   -1.7112254378    2.0308891714
C        1.8088804705   -0.9196584023    2.6566764989
C        0.8545996710   -0.2450485064    1.8781747272
C        0.8795040968   -0.3474880613    0.4821827685
H        0.1425635005    0.1822971697   -0.1146954807
H        0.0943203774    0.3599501320    2.3654000019
C        1.7699864762   -0.8345619914    4.1451889787
O        2.5399579867   -0.2183024690    4.8314923067
O        0.7111689799   -1.4888467614    4.6709640099
H        0.7857293051   -1.3482305996    5.6257612001
H        3.4961621301   -2.2446379888    2.6313886665
H        3.5494041441   -2.4346844140    0.1544804957
15   

H        1.9106466207   -1.2132795190   -1.2245241047
C        1.8684755166   -1.1259016457   -0.1423056388
C        2.7633789330   -1.8466281780    0.6560121846
C        2.7082077333   -1.7317931572    2.0510529156
C        1.7676188039   -0.9061614372    2.6526979286
C        0.8706339840   -0.1813077203    1.8528038299
C        0.9201932091   -0.2911092735    0.4579934369
H        0.2238369523    0.2723222067   -0.1565536978
H        0.1363160763    0.4686379140    2.3215827033
C        1.7235761227   -0.7864501195    4.1403386036
O        2.3327034541    0.0170083868    4.7929140153
O        0.9060190291   -1.6989713237    4.7090252555
H        0.9623962646   -1.5211177198    5.6587941726
H        3.4062956496   -2.2911159750    2.6686159123
H        3.5024428360   -2.4949347446    0.1939343806
15   

H        1.9514609857   -1.2012023499   -1.2237354372
C        1.8846855938   -1.1143254097   -0.1427154031
C        2.7255929232   -1.8757525943    0.6763715838
C        2.6387882206   -1.7617532588    2.0698602660
C        1.7112776663   -0.9050374246    2.6491887030
C        0.8813241812   -0.1260216039    1.8284330882
C        0.9626031692   -0.2353284367    0.4350648746
H        0.3135533933    0.3652760182   -0.1958564566
H        0.1751449737    0.5660273708    2.2801705439
C        1.6627576143   -0.7599503163    4.1322825295
O        2.0749834754    0.1840236460    4.7509227253
O        1.1553113351   -1.8515653099    4.7458418794
H        1.1933965496   -1.6420436466    5.6901025097
H        3.2972786900   -2.3501739384    2.7037188099
H        3.4482924213   -2.5539656796    0.2316798178
15   

H        1.9884321689   -1.1981719391   -1.2223635733
C        1.8991829762   -1.1130900812   -0.1428245265
C        2.6940528549   -1.9055304372    0.6924233216
C        2.5786730363   -1.7936296870    2.0840381168
C        1.6632396550   -0.9118325715    2.6466059170
C        0.8864722889   -0.0964226513    1.8086645104
C        0.9963927670   -0.2033947281    0.4171693401
H        0.3858289085    0.4242337365   -0.2257659557
H        0.1995298316    0.6232946464    2.2471981275
C        1.5962129775   -0.7529458054    4.1231748595
O        1.7812220763    0.2768979128    4.7161909590
O        1.3883459342   -1.9219443663    4.7700387291
H        1.3885155960   -1.6850537287    5.7087014870
H        3.2045959985   -2.4055556088    2.7287735606
H        3.4041910279   -2.6057745621    0.2618729359
15   

H        2.0149215951   -1.1944442534   -1.2224271104
C        1.9110579494   -1.1123891097   -0.1439610904
C        2.6681555354   -1.9321833928    0.6994086767
C        2.5343863698   -1.8244260447    2.0897928548
C        1.6372779206   -0.9181442789    2.6452156359
C        0.8985684271   -0.0769154383    1.7970061450
C        1.0272051381   -0.1795216916    0.4069584267
H        0.4454533026    0.4694415435   -0.2415040906
H        0.2252660495    0.6605112633    2.2278625486
C        1.5411089085   -0.7595789055    4.1160822823
O        1.4896697931    0.2955813614    4.6937461185
O        1.5887157423   -1.9344694962    4.7856601530
H        1.5334251666   -1.6844558345    5.7194033692
H        3.1353320948   -2.4599893160    2.7355668264
H        3.3639639033   -2.6510315163    0.2761763198
15   

H        2.0401908358   -1.1866232082   -1.2236677038
C        1.9256883470   -1.1083723289   -0.1459963154
C        2.6489150040   -1.9537305343    0.7011561825
C        2.5017305012   -1.8517560583    2.0907516065
C        1.6270662862   -0.9213713044    2.6441669162
C        0.9177632431   -0.0597451209    1.7893951565
C        1.0602877925   -0.1566556267    0.4005042168
H        0.5019668182    0.5104024553   -0.2502088216
H        0.2537797032    0.6897797696    2.2143291780
C        1.4956755607   -0.7734985858    4.1107632085
O        1.2113619973    0.2520745689    4.6764041840
O        1.7686334641   -1.9065748137    4.7996560197
H        1.6502189490   -1.6594030840    5.7283741851
H        3.0806732850   -2.5125349103    2.7312363232
H        3.3291002595   -2.6893839999    0.2814013771
15   

H        2.0648548288   -1.1740144651   -1.2244986330
C        1.9406969149   -1.1009782358   -0.1475290272
C        2.6308887885   -1.9717995879    0.7007446843
C        2.4713793375   -1.8776009104    2.0896492677
C        1.6211153547   -0.9241296484    2.6435138879
C        0.9377949535   -0.0436268543    1.7850007232
C        1.0931446775   -0.1330635910    0.3971583724
H        0.5565611176    0.5511375581   -0.2540569870
H        0.2815444119    0.7154854477    2.2051759071
C        1.4546566499   -0.7934309211    4.1070616868
O        0.9511186087    0.1524007142    4.6606327138
O        1.9392676978   -1.8416878506    4.8143195516
H        1.7607605700   -1.6121245429    5.7380093224
H        3.0265236963   -2.5652979284    2.7226372908
H        3.2946141419   -2.7230497303    0.2822451719
15   

H        2.0869134554   -1.1573567301   -1.2238971862
C        1.9531978862   -1.0915836951   -0.1476030303
C        2.6109763109   -1.9883130799    0.6991181674
C        2.4389648236   -1.9040534453    2.0872114912
C        1.6135344168   -0.9298471498    2.6431869150
C        0.9544077853   -0.0303193248    1.7846256772
C        1.1225172293   -0.1098426113    0.3977283358
H        0.6071071843    0.5915444658   -0.2523109394
H        0.3061437239    0.7364525742    2.2033545231
C        1.4158270656   -0.8205743991    4.1043664813
O        0.7150869652    0.0001981621    4.6434598662
O        2.0995468167   -1.7382239617    4.8286323088
H        1.8698878286   -1.5386221135    5.7479960372
H        2.9660070350   -2.6178585422    2.7151962449
H        3.2580459304   -2.7535749330    0.2799109665
