15   

H        1.8842330368   -1.1995256483   -1.1371701552
C        1.8986790178   -1.1509186522   -0.0515715199
C        2.9603846241   -1.7148870943    0.6608837904
C        2.9824950478   -1.6499792917    2.0591266657
C        1.9375181416   -1.0282899018    2.7676750816
C        0.8785653505   -0.4525622283    2.0339537888
C        0.8607029417   -0.5166038015    0.6356925300
H        0.0423449904   -0.0658923330    0.0806211188
H        0.0687000061    0.0714937688    2.5333929234
C        1.9680897212   -0.9741908872    4.2380961931
O        2.9986689886   -1.1458832446    4.8281131912
O        0.8177008376   -0.7689023661    4.9117254249
H        0.0392105000   -0.8750360873    4.3499263529
H        3.8158915705   -2.0894886425    2.6036946893
H        3.7724852245   -2.2033204977    0.1296000099
15   

H        1.8830667815   -1.2663534287   -1.1390444741
C        1.8969472608   -1.2047686586   -0.0541128990
C        2.9491112152   -1.7758941893    0.6670822320
C        2.9711832547   -1.6930414590    2.0645690647
C        1.9358761052   -1.0443970263    2.7630906027
C        0.8865939778   -0.4628486153    2.0204980052
C        0.8680834382   -0.5457387896    0.6234310553
H        0.0571275863   -0.0892783665    0.0622351591
H        0.0860581833    0.0808993626    2.5146251701
C        1.9669692172   -0.9570638609    4.2318026208
O        2.9798986341   -1.1865614993    4.8318058916
O        0.8201798788   -0.6788194542    4.8963881059
H        0.0378185925   -0.9607088413    4.4072844056
H        3.7984133312   -2.1361478253    2.6154956635
H        3.7545937814   -2.2824990458    0.1428437291
15   

H        1.8951179430   -1.3154628230   -1.1451514379
C        1.9050776304   -1.2445118661   -0.0607748934
C        2.9493494394   -1.8179245237    0.6702729149
C        2.9666801104   -1.7221687424    2.0671876830
C        1.9347424508   -1.0567153594    2.7548990515
C        0.8931030089   -0.4746673698    2.0022841250
C        0.8788432638   -0.5709402493    0.6062103806
H        0.0734243036   -0.1131246396    0.0382233187
H        0.0951988195    0.0790174824    2.4900832280
C        1.9609908645   -0.9456829309    4.2222495775
O        2.9519525252   -1.2278115673    4.8353835352
O        0.8187592339   -0.5923984266    4.8733959186
H        0.0425716754   -1.0278574338    4.5047499681
H        3.7887050944   -2.1658165244    2.6252987673
H        3.7528587046   -2.3354897313    0.1538484184
15   

H        1.9217594145   -1.3346049939   -1.1565577838
C        1.9242066226   -1.2611695389   -0.0723368785
C        2.9605763369   -1.8371632888    0.6680526690
C        2.9680262100   -1.7380225140    2.0649772089
C        1.9344479782   -1.0651826972    2.7430767970
C        0.9003729638   -0.4822274049    1.9809938446
C        0.8955663216   -0.5822339464    0.5852641759
H        0.0952162852   -0.1234283043    0.0110059529
H        0.0998419786    0.0729120720    2.4630843764
C        1.9493363838   -0.9460740059    4.2102333606
O        2.9157964688   -1.2750075839    4.8379326195
O        0.8161977537   -0.5119863117    4.8460295134
H        0.0570666120   -1.0666835643    4.6424416260
H        3.7842827202   -2.1833342704    2.6300375394
H        3.7657088271   -2.3591199165    0.1587145647
15   

H        1.9623880915   -1.3201455537   -1.1735387423
C        1.9534863449   -1.2516519139   -0.0890674522
C        2.9811226622   -1.8322138123    0.6599823908
C        2.9732084636   -1.7400631060    2.0574954764
C        1.9333944025   -1.0684588388    2.7273786675
C        0.9078318452   -0.4821918733    1.9565358485
C        0.9179961802   -0.5755095201    0.5604689021
H        0.1230078994   -0.1146950822   -0.0195174904
H        0.1002006434    0.0669259273    2.4337882558
C        1.9291472176   -0.9585095122    4.1957072780
O        2.8728462897   -1.3253088097    4.8365547622
O        0.8133990387   -0.4410092316    4.8144934309
H        0.0849154923   -1.0676539482    4.8165609711
H        3.7823987376   -2.1896108342    2.6291643103
H        3.7910623131   -2.3527174073    0.1569127872
15   

H        2.0141198010   -1.2831196648   -1.1913853540
C        1.9902272310   -1.2259016962   -0.1065255936
C        3.0074143396   -1.8139799221    0.6509183993
C        2.9791343811   -1.7375362773    2.0492061126
C        1.9298442238   -1.0729729896    2.7115269139
C        0.9146511786   -0.4800478461    1.9320813772
C        0.9447479927   -0.5580895412    0.5354294913
H        0.1562733471   -0.0933066232   -0.0501709274
H        0.0970165002    0.0583731133    2.4045162398
C        1.8997871848   -0.9847667810    4.1816034081
O        2.8238412094   -1.3846559978    4.8327016725
O        0.8135931305   -0.3839986397    4.7813436128
H        0.1343853978   -1.0226276622    5.0130069205
H        3.7795919371   -2.1942762374    2.6272574979
H        3.8244886268   -2.3289735543    0.1538490612
15   

H        2.0653184000   -1.2484004950   -1.2061008286
C        2.0251656409   -1.2033432845   -0.1211817580
C        3.0320127089   -1.7978141580    0.6450485051
C        2.9818875866   -1.7381140267    2.0436225505
C        1.9214322070   -1.0828159685    2.6976703169
C        0.9164742267   -0.4842998561    1.9090759088
C        0.9680399975   -0.5460371685    0.5123024561
H        0.1861132580   -0.0780196745   -0.0794018947
H        0.0878181075    0.0423699468    2.3755867758
C        1.8644636305   -1.0161122555    4.1688072952
O        2.7727895320   -1.4447172497    4.8270557774
O        0.8119089140   -0.3497498152    4.7476210989
H        0.2118246188   -0.9482730340    5.2015791505
H        3.7738742676   -2.2010732888    2.6281879825
H        3.8575491027   -2.3055562240    0.1546407879
15   

H        2.1046458099   -1.2305706790   -1.2160805455
C        2.0498427352   -1.1946881462   -0.1314858650
C        3.0478280782   -1.7928312743    0.6434470017
C        2.9782381470   -1.7456732787    2.0417398538
C        1.9075708217   -1.0980545157    2.6870069453
C        0.9112897604   -0.4967176084    1.8893710715
C        0.9818969912   -0.5464875997    0.4930138065
H        0.2056215814   -0.0770835477   -0.1049538093
H        0.0729471040    0.0203514177    2.3493817219
C        1.8283876185   -1.0446254665    4.1582480503
O        2.7179557128   -1.5064188120    4.8231435473
O        0.8069598146   -0.3320784798    4.7179659736
H        0.3143662119   -0.8554760994    5.3592634566
H        3.7632059697   -2.2122055082    2.6327534276
H        3.8813390470   -2.2941383442    0.1600334445
15   

H        2.1377455730   -1.2187761608   -1.2222149561
C        2.0707163801   -1.1882517390   -0.1381589919
C        3.0657121887   -1.7803183755    0.6453187903
C        2.9801295818   -1.7401953704    2.0430149348
C        1.8961932783   -1.1057133920    2.6790698072
C        0.9025642618   -0.5114281297    1.8727831715
C        0.9893393387   -0.5537495043    0.4771514394
H        0.2146246773   -0.0898553839   -0.1270867677
H        0.0529548233   -0.0069328639    2.3262235319
C        1.7990665535   -1.0595178949    4.1496603314
O        2.6824184080   -1.5241133775    4.8236025509
O        0.7732467616   -0.3583028982    4.6950932323
H        0.4261062690   -0.8001900064    5.4800685747
H        3.7625382517   -2.2024027238    2.6406770169
H        3.9090702607   -2.2717623726    0.1689639270
15   

H        2.1580261301   -1.2061220772   -1.2262869175
C        2.0817688866   -1.1811833424   -0.1427069024
C        3.0741888230   -1.7702009365    0.6463721344
C        2.9764776938   -1.7375112361    2.0434960913
C        1.8829495619   -1.1133999259    2.6732553043
C        0.8916217362   -0.5228918900    1.8614192511
C        0.9905447629   -0.5576376856    0.4664043202
H        0.2171953122   -0.0969497350   -0.1420044386
H        0.0338280931   -0.0284266041    2.3106278135
C        1.7732893668   -1.0739759448    4.1431246634
O        2.6438080444   -1.5545251973    4.8245058725
O        0.7399032048   -0.3917489861    4.6808940055
H        0.5371981302   -0.7272174910    5.5654997440
H        3.7565850496   -2.1977516906    2.6456033116
H        3.9247185577   -2.2538091178    0.1747975243
15   

H        2.1779668179   -1.1908390476   -1.2287240273
C        2.0943528574   -1.1708104556   -0.1455901392
C        3.0872072886   -1.7532677007    0.6478769130
C        2.9797621228   -1.7271888091    2.0444508811
C        1.8758165082   -1.1165878228    2.6690188531
C        0.8838169208   -0.5332250219    1.8529439273
C        0.9926783537   -0.5609086100    0.4585368099
H        0.2184866672   -0.1060381835   -0.1531639178
H        0.0173203512   -0.0508902927    2.2987454244
C        1.7556163487   -1.0842057432    4.1380139996
O        2.6168335977   -1.5726145196    4.8267461092
O        0.6983563091   -0.4452919620    4.6712270085
H        0.6316778721   -0.6531536498    5.6154453424
H        3.7596585489   -2.1829506866    2.6501927222
H        3.9452925499   -2.2271012562    0.1800988073
15   

H        2.1947376259   -1.1718991844   -1.2287321798
C        2.1059675311   -1.1574188936   -0.1459220196
C        3.1015894190   -1.7322258103    0.6496946749
C        2.9872789390   -1.7136385679    2.0458615343
C        1.8733664639   -1.1187167804    2.6677320603
C        0.8783521646   -0.5435257775    1.8495566943
C        0.9943767613   -0.5631387347    0.4556082505
H        0.2175956282   -0.1149156625   -0.1577180785
H        0.0034218039   -0.0748248922    2.2934683797
C        1.7453979085   -1.0948666235    4.1361303246
O        2.6008502046   -1.5892391563    4.8282333557
O        0.6573499088   -0.5109972470    4.6661220628
H        0.6999389110   -0.5653211222    5.6333332705
H        3.7687698717   -2.1642751926    2.6533679252
H        3.9668080173   -2.1948618295    0.1838599542
15   

H        2.2018534977   -1.1475478558   -1.2273453058
C        2.1111431366   -1.1403793349   -0.1446211030
C        3.1118762883   -1.7085582060    0.6493009461
C        2.9948951053   -1.6997604877    2.0453243663
C        1.8729141369   -1.1218436684    2.6688510912
C        0.8724807179   -0.5537651724    1.8522890621
C        0.9915138791   -0.5630156604    0.4584691453
H        0.2104043182   -0.1206822765   -0.1536310795
H       -0.0095708377   -0.0996194837    2.2971922413
C        1.7418525834   -1.1091454935    4.1372193448
O        2.5956212908   -1.6110535645    4.8255198551
O        0.6233568342   -0.5811941972    4.6668987331
H        0.7380839982   -0.4603478616    5.6215896631
H        3.7799617702   -2.1461525775    2.6513647421
H        3.9828461169   -2.1590419439    0.1822668194
15   

H        2.2040727562   -1.1226742963   -1.2236277301
C        2.1131260490   -1.1243560276   -0.1408957096
C        3.1193025194   -1.6884422425    0.6489779637
C        3.0019137086   -1.6914127480    2.0449659564
C        1.8739198705   -1.1297623218    2.6727351007
C        0.8676790648   -0.5662814441    1.8600376282
C        0.9873950577   -0.5633459069    0.4662230105
H        0.2017201837   -0.1249956141   -0.1428976636
H       -0.0200828592   -0.1261265326    2.3075157033
C        1.7425057022   -1.1297618481    4.1413487381
O        2.5948292523   -1.6432847721    4.8216789977
O        0.5999696414   -0.6453359559    4.6728183693
H        0.7515957899   -0.3386902404    5.5778783972
H        3.7909854124   -2.1354067956    2.6475910409
H        3.9946133657   -2.1271405347    0.1788343115
15   

H        2.2038461429   -1.0990007798   -1.2183992994
C        2.1130848106   -1.1114807082   -0.1357134630
C        3.1233530976   -1.6758667587    0.6486483416
C        3.0061313015   -1.6930763147    2.0445178517
C        1.8743255572   -1.1453429833    2.6778067719
C        0.8635255356   -0.5821788650    1.8705265463
C        0.9831847991   -0.5649116476    0.4767932928
H        0.1939668783   -0.1273033786   -0.1282839436
H       -0.0284576739   -0.1544733018    2.3215186132
C        1.7438508674   -1.1595768666    4.1464720475
O        2.5897002815   -1.6921276373    4.8182492012
O        0.5891191364   -0.6919566598    4.6844649821
H        0.7563617458   -0.2017551547    5.4991357891
H        3.7982046522   -2.1377662396    2.6427398748
H        4.0015856409   -2.1041113586    0.1743086392
15   

H        2.1959868475   -1.0650389300   -1.2108075082
C        2.1072071609   -1.0907294096   -0.1281742753
C        3.1244463176   -1.6539779346    0.6478711502
C        3.0097977713   -1.6884760115    2.0435627782
C        1.8737120802   -1.1594120532    2.6850522927
C        0.8552938775   -0.5981951093    1.8861374252
C        0.9726403519   -0.5632634028    0.4924783480
H        0.1777564961   -0.1275840707   -0.1065643274
H       -0.0414885438   -0.1870341162    2.3427735830
C        1.7466811696   -1.1926938506    4.1535312613
O        2.5937540428   -1.7314971790    4.8159724646
O        0.5843044840   -0.7355723178    4.7051138892
H        0.7466948565   -0.0720224771    5.3842213722
H        3.8070787128   -2.1326923322    2.6352880550
H        4.0059570393   -2.0682970751    0.1672294113
15   

H        2.1898079630   -1.0227958976   -1.1989124785
C        2.1010834640   -1.0657643387   -0.1167972020
C        3.1201914376   -1.6380136972    0.6501415678
C        3.0053227187   -1.6956471607    2.0449783398
C        1.8679502054   -1.1797458938    2.6945853413
C        0.8470326323   -0.6101545258    1.9050688790
C        0.9643438382   -0.5527425447    0.5120905778
H        0.1674404673   -0.1118680540   -0.0804788706
H       -0.0528776649   -0.2126185770    2.3674659365
C        1.7415560525   -1.2388603941    4.1617148102
O        2.5707986420   -1.8107868799    4.8154003260
O        0.6010662935   -0.7318610651    4.7354519092
H        0.7746081666    0.0716806668    5.2340629708
H        3.8035102248   -2.1473678245    2.6299023173
H        4.0030803706   -2.0418158686    0.1630450545
15   

H        2.1914423802   -0.9617533906   -1.1811514524
C        2.1011139071   -1.0249365797   -0.1001268960
C        3.1205651776   -1.6089116908    0.6574476600
C        3.0032035599   -1.6939098376    2.0505928079
C        1.8637379557   -1.1927703791    2.7077080350
C        0.8418460601   -0.6119852567    1.9278760791
C        0.9614834993   -0.5277534501    0.5363931644
H        0.1636610080   -0.0799114358   -0.0497468000
H       -0.0622734294   -0.2302999844    2.3953187745
C        1.7335516212   -1.2860274488    4.1720040923
O        2.5470794022   -1.8862187993    4.8167186007
O        0.6300193536   -0.7166803774    4.7707449260
H        0.8012632659    0.1859191574    5.0515072455
H        3.8008234422   -2.1557925195    2.6284803464
H        4.0052451712   -2.0013842981    0.1642810314
15   

H        2.1946638813   -0.8991996109   -1.1601320916
C        2.1028144216   -0.9810318611   -0.0804489191
C        3.1217196286   -1.5774165268    0.6680974585
C        3.0019702388   -1.6879444415    2.0591549292
C        1.8614006720   -1.1989396575    2.7232215638
C        0.8393659822   -0.6062797981    1.9525817396
C        0.9612637216   -0.4971032997    0.5629646055
H        0.1631645915   -0.0419271409   -0.0172017289
H       -0.0685916425   -0.2389836288    2.4240420314
C        1.7266546409   -1.3254933139    4.1840171593
O        2.5229916889   -1.9593575847    4.8163591587
O        0.6772039887   -0.6878346228    4.8066287560
H        0.8181736138    0.2612559474    4.8588873728
H        3.7983468190   -2.1607141255    2.6300844217
H        4.0074151852   -1.9606275318    0.1694012071
15   

H        2.1847572702   -0.8580072084   -1.1413754420
C        2.0947938280   -0.9520457507   -0.0624884790
C        3.1147391106   -1.5578019411    0.6769562939
C        2.9972968781   -1.6850004941    2.0666723042
C        1.8587817203   -1.2023388405    2.7387121425
C        0.8347593390   -0.6011689013    1.9772054784
C        0.9543129147   -0.4758000712    0.5886539946
H        0.1548907305   -0.0153159088    0.0144468743
H       -0.0746358833   -0.2433239848    2.4530079417
C        1.7265393064   -1.3498761132    4.1973771368
O        2.5034087052   -2.0224237029    4.8141474954
O        0.7378277358   -0.6540267079    4.8415011394
H        0.8070926336    0.2927333846    4.6857291610
H        3.7940484761   -2.1656590770    2.6306090243
H        3.9992720200   -1.9358608265    0.1722035281
15   

H        2.1540489500   -0.8462092673   -1.1302024364
C        2.0701867155   -0.9452900417   -0.0512418914
C        3.0924062394   -1.5586667887    0.6785339562
C        2.9830927414   -1.6924259655    2.0681380248
C        1.8514459819   -1.2076743471    2.7500925443
C        0.8239119673   -0.6000643981    1.9982907923
C        0.9352785201   -0.4686670108    0.6094690086
H        0.1338281571   -0.0036601118    0.0417102209
H       -0.0829997119   -0.2439329732    2.4797963063
C        1.7320799397   -1.3605367496    4.2090372779
O        2.4827995999   -2.0780554326    4.8083043997
O        0.8064534336   -0.6146942322    4.8726871738
H        0.7703461006    0.2910990003    4.5467632775
H        3.7816927710   -2.1785258881    2.6248976372
H        3.9725460390   -1.9373552698    0.1665338484
15   

H        2.1059371441   -0.8624448289   -1.1261788938
C        2.0320697679   -0.9598846245   -0.0463127145
C        3.0568317998   -1.5806701365    0.6733009878
C        2.9609404126   -1.7116014204    2.0639781630
C        1.8414147034   -1.2155857143    2.7576376587
C        0.8099556561   -0.6017370624    2.0160735467
C        0.9077676236   -0.4738170659    0.6257215013
H        0.1043259324   -0.0037391550    0.0649590284
H       -0.0901299417   -0.2384028099    2.5044537422
C        1.7446312744   -1.3600023303    4.2189677666
O        2.4629322401   -2.1234549509    4.8019628397
O        0.8796504269   -0.5710367319    4.8998210819
H        0.7136785513    0.2641547569    4.4462994831
H        3.7620531669   -2.2020398525    2.6133973748
H        3.9289691973   -1.9664768873    0.1529105825
15   

H        2.0500224111   -0.8990780112   -1.1275982011
C        1.9874084593   -0.9901236512   -0.0464479239
C        3.0114458662   -1.6223561161    0.6638346415
C        2.9307228593   -1.7438092768    2.0561413768
C        1.8285533915   -1.2257678846    2.7613865558
C        0.7966169695   -0.6010805698    2.0292231450
C        0.8788747508   -0.4836783629    0.6367414397
H        0.0761791431   -0.0045835967    0.0825728639
H       -0.0919434778   -0.2196421826    2.5241181789
C        1.7595380070   -1.3521456080    4.2260588572
O        2.4386596347   -2.1607815522    4.7957903969
O        0.9540626887   -0.5217672158    4.9195987469
H        0.6435407285    0.2201966115    4.3848134531
H        3.7322555835   -2.2410637007    2.5988714143
H        3.8719433824   -2.0230813139    0.1353458831
15   

H        1.9917572965   -0.9393181352   -1.1330689825
C        1.9427766389   -1.0198894922   -0.0503798471
C        2.9616617974   -1.6704172344    0.6500991780
C        2.8991402435   -1.7770495827    2.0443300833
C        1.8214199800   -1.2257665606    2.7626937966
C        0.7944156516   -0.5812849679    2.0399418747
C        0.8580313071   -0.4798473288    0.6450035044
H        0.0601392359    0.0153026136    0.0980818918
H       -0.0755095155   -0.1674718517    2.5406558104
C        1.7842938436   -1.3319329438    4.2312348889
O        2.4463763271   -2.1623277464    4.7902588936
O        1.0071194014   -0.4880788124    4.9361972834
H        0.5258321485    0.1307977126    4.3713620098
H        3.6984542414   -2.2865985741    2.5789275524
H        3.8049472582   -2.0955112713    0.1129430068
