15   

H        1.8844931894   -1.1974242595   -1.1372583368
C        1.8989335135   -1.1491163702   -0.0516462632
C        2.9606383276   -1.7132817198    0.6606505690
C        2.9827130757   -1.6488115849    2.0589109712
C        1.9377025068   -1.0273797725    2.7676381623
C        0.8787662662   -0.4514166926    2.0340828271
C        0.8609404166   -0.5150185185    0.6357974403
H        0.0425730174   -0.0641759813    0.0808475273
H        0.0688487235    0.0724034841    2.5336839474
C        1.9680883683   -0.9741836753    4.2380957310
O        2.9986688411   -1.1458666493    4.8281181973
O        0.8176975165   -0.7689074310    4.9117198680
H        0.0392111191   -0.8750488027    4.3499162352
H        3.8160681760   -2.0885474485    2.6033607315
H        3.7727413367   -2.2015711066    0.1292370252
15   

H        1.8836822703   -1.2630188511   -1.1392448548
C        1.8975211761   -1.2019081827   -0.0542859445
C        2.9496712468   -1.7733336092    0.6666867296
C        2.9716417527   -1.6911755076    2.0642115832
C        1.9362470517   -1.0429527311    2.7629978385
C        0.8870051950   -0.4610448242    2.0206380906
C        0.8685979945   -0.5432359765    0.6235232453
H        0.0576343070   -0.0865793028    0.0625000544
H        0.0863557413    0.0823115793    2.5150101631
C        1.9669687079   -0.9570535557    4.2318023284
O        2.9799005709   -1.1865343014    4.8318113293
O        0.8201727735   -0.6788308861    4.8963827097
H        0.0378198781   -0.9607343381    4.4072733019
H        3.7987920800   -2.1346327371    2.6149771526
H        3.7551802904   -2.2797010066    0.1422580174
15   

H        1.8958536464   -1.3125388855   -1.1453655068
C        1.9057447829   -1.2420011374   -0.0609613993
C        2.9499854257   -1.8156734488    0.6699235188
C        2.9671830214   -1.7205255822    2.0668780877
C        1.9351417387   -1.0554439185    2.7547954423
C        0.8935587046   -0.4730834325    2.0023508264
C        0.8794336345   -0.5687444110    0.6062296312
H        0.0740206248   -0.1107609952    0.0383707911
H        0.0955318324    0.0802519400    2.4903441505
C        1.9609905227   -0.9456727612    4.2222483695
O        2.9519553600   -1.2277853219    4.8353878664
O        0.8187513595   -0.5924102168    4.8733903761
H        0.0425735843   -1.0278828458    4.5047395272
H        3.7891197860   -2.1644807687    2.6248756801
H        3.7535353715   -2.3330304277    0.1533525881
15   

H        1.9219665342   -1.3339324954   -1.1566087232
C        1.9243917500   -1.2605891440   -0.0723815416
C        2.9607531553   -1.8366360470    0.6679776096
C        2.9681640150   -1.7376317336    2.0649113822
C        1.9345539322   -1.0648810640    2.7430512691
C        0.9004935103   -0.4818602836    1.9810001288
C        0.8957265116   -0.5817289838    0.5852596487
H        0.0953784916   -0.1228899225    0.0110255936
H        0.0999280425    0.0731953184    2.4631296969
C        1.9493342915   -0.9460609383    4.2102323805
O        2.9158055587   -1.2749738308    4.8379288803
O        0.8161862423   -0.5120029357    4.8460307092
H        0.0570692655   -1.0667189309    4.6424410287
H        3.7843986668   -2.1830097446    2.6299512485
H        3.7659002287   -2.3585427323    0.1586111674
15   

H        1.9614515247   -1.3224715033   -1.1733818622
C        1.9526624098   -1.2536488074   -0.0889304413
C        2.9803775812   -1.8339790210    0.6601925239
C        2.9726481980   -1.7413389005    2.0576757797
C        1.9329442751   -1.0694607404    2.7274536102
C        0.9072780556   -0.4834707076    1.9565353103
C        0.9172573311   -0.5772788165    0.5605018462
H        0.1222251508   -0.1166143437   -0.0195442330
H        0.0997674101    0.0659130821    2.4336867859
C        1.9291469593   -0.9584922434    4.1957048625
O        2.8728577852   -1.3252648400    4.8365564315
O        0.8133844471   -0.4410311361    4.8144917730
H        0.0849205742   -1.0676986832    4.8165559905
H        3.7819547726   -2.1906162508    2.6293923256
H        3.7902679405   -2.3546293161    0.1571957962
15   

H        2.0124469171   -1.2864943130   -1.1912252385
C        1.9887689343   -1.2288070204   -0.1063855447
C        3.0061092479   -1.8165503213    0.6511142076
C        2.9781665762   -1.7394021535    2.0493710986
C        1.9290703265   -1.0744465257    2.7116023375
C        0.9136839666   -0.4819249562    1.9320997678
C        0.9434431092   -0.5606723503    0.5354818198
H        0.1548767870   -0.0961044936   -0.0501665329
H        0.0962511776    0.0568813947    2.4044457704
C        1.8997871122   -0.9847514010    4.1816005266
O        2.8238530391   -1.3846174627    4.8327035659
O        0.8135777641   -0.3840208727    4.7813433930
H        0.1343895329   -1.0226726858    5.0130015120
H        3.7788263524   -2.1957439518    2.6274570560
H        3.8230905191   -2.3317492412    0.1541049179
15   

H        2.0644940061   -1.2498081191   -1.2060698810
C        2.0244519873   -1.2045550327   -0.1211548281
C        3.0313843990   -1.7988761631    0.6450797825
C        2.9814286662   -1.7388797426    2.0436472111
C        1.9210624045   -1.0834269565    2.6976826455
C        0.9160006180   -0.4850906234    1.9090845160
C        0.9673973506   -0.5471236469    0.5123180637
H        0.1854168305   -0.0792026314   -0.0793916741
H        0.0874356864    0.0417344697    2.3755823729
C        1.8644648008   -1.0160943889    4.1688027370
O        2.7728100942   -1.4446641856    4.8270544181
O        0.8118864082   -0.3497796604    4.7476219735
H        0.2118289264   -0.9483311713    5.2015783603
H        3.7735172405   -2.2016622184    2.6282148396
H        3.8568769836   -2.3066962369    0.1546790048
15   

H        2.1054369028   -1.2293294774   -1.2160888179
C        2.0505265844   -1.1936117076   -0.1314941633
C        3.0484385281   -1.7918666611    0.6434469811
C        2.9786865831   -1.7449602737    2.0417404213
C        1.9079242099   -1.0974903566    2.6870002724
C        0.9117335740   -0.4960146176    1.8893559085
C        0.9825034809   -0.5455318387    0.4929980738
H        0.2062741310   -0.0760579380   -0.1049744437
H        0.0732987691    0.0209078078    2.3493634241
C        1.8283881370   -1.0446122746    4.1582436765
O        2.7179718929   -1.5063816611    4.8231421996
O        0.8069430448   -0.3321011349    4.7179690519
H        0.3143682362   -0.8555188143    5.3592646619
H        3.7635650724   -2.2116340345    2.6327606332
H        3.8819988428   -2.2930977370    0.1600398547
15   

H        2.1394818523   -1.2160535371   -1.2221953702
C        2.0722149807   -1.1858939775   -0.1381439867
C        3.0670385503   -1.7782234640    0.6453539891
C        2.9810980018   -1.7386578555    2.0430446036
C        1.8969626177   -1.1044887467    2.6790748951
C        0.9035429979   -0.5098806320    1.8727670204
C        0.9906766527   -0.5516435795    0.4771413400
H        0.2160716968   -0.0875835493   -0.1271100746
H        0.0537389936   -0.0056968288    2.3261892585
C        1.7990648920   -1.0595077510    4.1496555281
O        2.6824298442   -1.5240885205    4.8235997111
O        0.7732368745   -0.3583201056    4.6950982431
H        0.4261107457   -0.8002211738    5.4800723659
H        3.7633034969   -2.2011902697    2.6407205762
H        3.9104990127   -2.2695105717    0.1690189256
15   

H        2.1597406285   -1.2033898947   -1.2262397619
C        2.0832483018   -1.1788169260   -0.1426680130
C        3.0754976001   -1.7680985052    0.6464287463
C        2.9774325391   -1.7359677098    2.0435413792
C        1.8837079929   -1.1121699306    2.6732721035
C        0.8925875089   -0.5213374034    1.8614179777
C        0.9918650635   -0.5555232655    0.4664149237
H        0.2186245864   -0.0946687297   -0.1420061877
H        0.0346022073   -0.0271840827    2.3106039333
C        1.7732870249   -1.0739648113    4.1431193128
O        2.6438235577   -1.5544947917    4.8245015410
O        0.7398915337   -0.3917709077    4.6809002893
H        0.5372040601   -0.7272520831    5.5655056809
H        3.7573385148   -2.1965343666    2.6456595860
H        3.9261283030   -2.2515497132    0.1748755914
15   

H        2.1789397189   -1.1891671573   -1.2286858626
C        2.0951930843   -1.1693631863   -0.1455581117
C        3.0879504900   -1.7519845067    0.6479099655
C        2.9803043535   -1.7262480245    2.0444749010
C        1.8762477199   -1.1158368356    2.6690326074
C        0.8843665022   -0.5322731185    1.8529575202
C        0.9934291461   -0.5596137902    0.4585594701
H        0.2192992852   -0.1046393553   -0.1531421360
H        0.0177608292   -0.0501271457    2.2987512095
C        1.7556122556   -1.0841983111    4.1380086188
O        2.6168413565   -1.5725990153    4.8267423208
O        0.6983528723   -0.4453050078    4.6712337923
H        0.6316876847   -0.6531752277    5.6154516743
H        3.7600843876   -2.1822102450    2.6502157048
H        3.9460919718   -2.2257229525    0.1801387282
15   

H        2.1947093723   -1.1718835898   -1.2287384995
C        2.1059432325   -1.1574054784   -0.1459279894
C        3.1015683216   -1.7322139791    0.6496835095
C        2.9872630539   -1.7136295896    2.0458506790
C        1.8733528730   -1.1187092119    2.6677265071
C        0.8783352300   -0.5435165893    1.8495569648
C        0.9943545815   -0.5631266654    0.4556079081
H        0.2175711748   -0.1149024703   -0.1577146825
H        0.0034069955   -0.0748170476    2.2934742974
C        1.7453914501   -1.0948628721    4.1361247707
O        2.6008503096   -1.5892390423    4.8282279659
O        0.6573532767   -0.5109993448    4.6661296362
H        0.6999540803   -0.5653297355    5.6333404788
H        3.7687563426   -2.1642673738    2.6533532484
H        3.9667853030   -2.1948489810    0.1838447170
15   

H        2.2009581845   -1.1492613186   -1.2274150225
C        2.1103670990   -1.1418608327   -0.1446824115
C        3.1111872590   -1.7098702742    0.6492512743
C        2.9943885555   -1.7007200843    2.0452877981
C        1.8725089823   -1.1226081509    2.6688165370
C        0.8719687936   -0.5547367213    1.8522413654
C        0.9908191782   -0.5643401507    0.4584083469
H        0.2096546435   -0.1221144278   -0.1536994991
H       -0.0099812501   -0.1003981273    2.2971489143
C        1.7418442730   -1.1091455964    4.1372136933
O        2.5956126918   -1.6110677238    4.8255151724
O        0.6233657383   -0.5811850372    4.6669061589
H        0.7381070498   -0.4603452269    5.6215966941
H        3.7795625904   -2.1469070188    2.6513400412
H        3.9821065718   -2.1604523247    0.1822178501
15   

H        2.2026759841   -1.1255792867   -1.2237602445
C        2.1119133996   -1.1268672552   -0.1410122870
C        3.1182217936   -1.6906692611    0.6488964701
C        3.0011171023   -1.6930426233    2.0449099770
C        1.8732841665   -1.1310583157    2.6726713653
C        0.8668798705   -0.5679248466    1.8599345211
C        0.9863111886   -0.5655875192    0.4660948752
H        0.2005537463   -0.1274176714   -0.1430491297
H       -0.0207200756   -0.1274411156    2.3074104905
C        1.7424952170   -1.1297652323    4.1413428617
O        2.5948125588   -1.6433128635    4.8216728059
O        0.5999815756   -0.6453155250    4.6728259354
H        0.7516274357   -0.3386777537    5.5778857632
H        3.7903570304   -2.1366931455    2.6475673065
H        3.9934533101   -2.1295372207    0.1787637748
15   

H        2.2024698193   -1.1019173426   -1.2185595040
C        2.1118903393   -1.1140020250   -0.1358540258
C        3.1222886434   -1.6781032930    0.6485453129
C        3.0053473482   -1.6947134719    2.0444461484
C        1.8737004035   -1.1466445876    2.6777312512
C        0.8627395019   -0.5838285182    1.8704085317
C        0.9821177247   -0.5671617656    0.4766443984
H        0.1928182433   -0.1297341211   -0.1284570137
H       -0.0290838129   -0.1557922016    2.3214030658
C        1.7438414781   -1.1595802722    4.1464666813
O        2.5896860048   -1.6921495693    4.8182448066
O        0.5891282398   -0.6919400859    4.6844710685
H        0.7563898927   -0.2017431636    5.4991409894
H        3.7975869162   -2.1390591342    2.6427033041
H        4.0004427447   -2.1065186251    0.1742148999
15   

H        2.1953589098   -1.0663672948   -1.2108978725
C        2.1066614712   -1.0918794076   -0.1282537202
C        3.1239560457   -1.6550064973    0.6478072629
C        3.0094339838   -1.6892337089    2.0435161394
C        1.8734235742   -1.1600101095    2.6850084079
C        0.8549362039   -0.5989433615    1.8860760099
C        0.9721555757   -0.5642836799    0.4923996216
H        0.1772371786   -0.1286804416   -0.1066524978
H       -0.0417713816   -0.1876265264    2.3427188346
C        1.7466703787   -1.1927006338    4.1535260743
O        2.5937320746   -1.7315294789    4.8159687824
O        0.5843146081   -0.7355471359    4.7051185344
H        0.7467312763   -0.0720023406    5.3842247046
H        3.8067869270   -2.1332993239    2.6352572463
H        4.0054286967   -2.0694079339    0.1671667928
15   

H        2.1905628485   -1.0213525252   -1.1987902128
C        2.1017300909   -1.0645191433   -0.1166916649
C        3.1207529852   -1.6369260801    0.6502429471
C        3.0057217605   -1.6948610391    2.0450538588
C        1.8682679128   -1.1791116809    2.6946371383
C        0.8474510575   -0.6093309874    1.9051275153
C        0.9649241722   -0.5516186605    0.5121754228
H        0.1680766749   -0.1106430352   -0.0803940708
H       -0.0525403612   -0.2119504094    2.3675006524
C        1.7415377547   -1.2388741136    4.1617086621
O        2.5707483659   -1.8108536126    4.8153960276
O        0.6010843426   -0.7318112742    4.7354542568
H        0.7746778590    0.0717176422    5.2340679807
H        3.8038108880   -2.1467664017    2.6299696725
H        4.0036832147   -2.0406536317    0.1631593510
15   

H        2.1933967613   -0.9585497812   -1.1807825923
C        2.1027868890   -1.0221632181   -0.0998067353
C        3.1220356982   -1.6064484563    0.6578026645
C        3.0042597347   -1.6921051844    2.0508735887
C        1.8645683158   -1.1913345330    2.7078753833
C        0.8429155241   -0.6101688119    1.9280117784
C        0.9629680564   -0.5252775488    0.5366062521
H        0.1652794453   -0.0772414773   -0.0495683481
H       -0.0614196241   -0.2288553024    2.3953418662
C        1.7335388424   -1.2860344471    4.1719997394
O        2.5470548902   -1.8862473052    4.8167177345
O        0.6300298214   -0.7166576198    4.7707461311
H        0.8013009899    0.1859379278    5.0515046476
H        3.8016503309   -2.1543721015    2.6287704929
H        4.0068379811   -1.9987358151    0.1647082406
15   

H        2.1961237871   -0.8971767160   -1.1598375158
C        2.1040573612   -0.9792781729   -0.0801932178
C        3.1228074987   -1.5758557161    0.6684122883
C        3.0027445128   -1.6867987130    2.0594111703
C        1.8620050477   -1.1980282268    2.7233567768
C        0.8401505148   -0.6051302773    1.9526583811
C        0.9623625316   -0.4955380492    0.5631035197
H        0.1643678734   -0.0402425261   -0.0171135904
H       -0.0679648617   -0.2380730610    2.4240021224
C        1.7266404034   -1.3255009760    4.1840133022
O        2.5229630600   -1.9593881536    4.8163580767
O        0.6772146513   -0.6878127990    4.8066287795
H        0.8182109921    0.2612737249    4.8588856084
H        3.7989537995   -2.1598124693    2.6303716246
H        4.0085987643   -1.9589501719    0.1697969084
15   

H        2.1842963732   -0.8585346068   -1.1414653837
C        2.0943997662   -0.9525061060   -0.0625670198
C        3.1143871288   -1.5582254182    0.6768492136
C        2.9970403369   -1.6853192073    2.0665821868
C        1.8585828476   -1.2025856997    2.7386685507
C        0.8345112884   -0.6014645035    1.9771910968
C        0.9539686494   -0.4762015978    0.5886209488
H        0.1545180756   -0.0157381551    0.0144370230
H       -0.0748321631   -0.2435480681    2.4530384157
C        1.7265273604   -1.3498802070    4.1973750642
O        2.5033872645   -2.0224477502    4.8141403649
O        0.7378355067   -0.6540096401    4.8415042669
H        0.8071218129    0.2927487769    4.6857321843
H        3.7938374235   -2.1659230618    2.6305014611
H        3.9988860534   -1.9363215077    0.1720645412
15   

H        2.1519746125   -0.8483765661   -1.1305790726
C        2.0684245439   -0.9471808000   -0.0515689720
C        3.0908514679   -1.5603849967    0.6780576408
C        2.9819800198   -1.6937100802    2.0677347244
C        1.8505867467   -1.2086831357    2.7499159770
C        0.8228139259   -0.6012955451    1.9982676263
C        0.9337361131   -0.4703353621    0.6093649417
H        0.1321435067   -0.0054291158    0.0417259114
H       -0.0838729343   -0.2448839593    2.4799875665
C        1.7320711998   -1.3605416134    4.2090352845
O        2.4827789562   -2.0780719343    4.8083070248
O        0.8064597221   -0.6146808271    4.8726823357
H        0.7703691066    0.2911116053    4.5467541279
H        3.7807960036   -2.1795662730    2.6243983110
H        3.9708408274   -1.9392115161    0.1658999682
15   

H        2.1034526929   -0.8647305782   -1.1265581075
C        2.0299630556   -0.9618842273   -0.0466403744
C        3.0549770603   -1.5824875961    0.6727664196
C        2.9596175379   -1.7129651729    2.0635182048
C        1.8403944091   -1.2166638424    2.7574647370
C        0.8086467873   -0.6030519072    2.0161142951
C        0.9059244055   -0.4755889990    0.6256775341
H        0.1023080710   -0.0056173034    0.0650780052
H       -0.0911750598   -0.2394250939    2.5047610724
C        1.7446223341   -1.3600076061    4.2189671693
O        2.4629092781   -2.1234719283    4.8019672369
O        0.8796570551   -0.5710231832    4.8998162704
H        0.7137027303    0.2641688277    4.4462888539
H        3.7609885854   -2.2031416216    2.6127960857
H        3.9269329949   -1.9684338970    0.1521739326
15   

H        2.0483879616   -0.9004131609   -1.1277955960
C        1.9860232461   -0.9912955223   -0.0466171651
C        3.0102307589   -1.6234148913    0.6635170423
C        2.9298579420   -1.7446058431    2.0558635933
C        1.8278833875   -1.2264074503    2.7613004657
C        0.7957524911   -0.6018674853    2.0292905815
C        0.8776589449   -0.4847290624    0.6367623594
H        0.0748443552   -0.0057019403    0.0827087849
H       -0.0926408805   -0.2202673613    2.5243601322
C        1.7595309640   -1.3521489483    4.2260582469
O        2.4386431647   -2.1607922615    4.7957947108
O        0.9540667574   -0.5217591351    4.9195930511
H        0.6435555903    0.2202057428    4.3848023805
H        3.7315630760   -2.2416989631    2.5984879538
H        3.8706113979   -2.0242124593    0.1348918103
15   

H        1.9917975916   -0.9392949873   -1.1330649419
C        1.9428089559   -1.0198699373   -0.0503764349
C        2.9616871576   -1.6704030478    0.6501078923
C        2.8991547449   -1.7770409071    2.0443379964
C        1.8214304011   -1.2257578617    2.7626953303
C        0.7944333766   -0.5812705794    2.0399380567
C        0.8580598051   -0.4798275406    0.6450006815
H        0.0601726964    0.0153259524    0.0980750129
H       -0.0754953929   -0.1674587609    2.5406469081
C        1.7842871622   -1.3319355372    4.2312349782
O        2.4463606446   -2.1623385220    4.7902618717
O        1.0071228433   -0.4880721497    4.9361936299
H        0.5258446077    0.1308077647    4.3713537733
H        3.6984624285   -2.2865953245    2.5789397122
H        3.8049751770   -2.0954977057    0.1129562529
