15   

H        2.1271734592   -1.0610762052   -1.2209000667
C        1.9701879796   -1.0475307112   -0.1458256079
C        3.0517399912   -1.2090820242    0.7250415146
C        2.8496035073   -1.1921327329    2.1114852719
C        1.5750217493   -1.0076583079    2.6408529889
C        0.4892273731   -0.8565668343    1.7591057640
C        0.6850900141   -0.8725848964    0.3736022005
H       -0.1620525963   -0.7512161682   -0.2955417274
H       -0.5139387283   -0.7261740888    2.1592543721
C        1.3363139185   -1.0078945632    4.1002347776
O        0.2532049108   -1.1124393342    4.6203504509
O        2.4619677515   -0.8943827346    4.8444945106
H        2.1477967367   -0.9106841952    5.7603534828
H        3.7100954750   -1.3264421367    2.7621009868
H        4.0522035373   -1.3500579313    0.3259820526
15   

H        2.1246472355   -1.0335679360   -1.2187905116
C        1.9683865009   -1.0309927932   -0.1435298016
C        3.0460703510   -1.2339597554    0.7240858363
C        2.8439185366   -1.2315988433    2.1105081007
C        1.5758451323   -1.0141948099    2.6412102956
C        0.4920431579   -0.8312814981    1.7648196962
C        0.6874088825   -0.8324314297    0.3789791989
H       -0.1568540113   -0.6835926754   -0.2882414820
H       -0.5072725875   -0.6894837585    2.1703958341
C        1.3412519635   -1.0533571554    4.1018528964
O        0.3073808204   -1.3862309155    4.6242305881
O        2.4261715394   -0.7149018578    4.8376101086
H        2.1290438670   -0.7916083713    5.7560133335
H        3.6941522861   -1.4007106588    2.7666543222
H        4.0421658491   -1.3970850593    0.3225687199
15   

H        2.1177430758   -1.0081097762   -1.2164901202
C        1.9639218419   -1.0165901536   -0.1409080583
C        3.0381700250   -1.2616044738    0.7207711792
C        2.8382667866   -1.2736982318    2.1073376471
C        1.5785392440   -1.0245961847    2.6418248852
C        0.4961126152   -0.8062937073    1.7737735817
C        0.6889138479   -0.7926178663    0.3874299134
H       -0.1526155129   -0.6144556919   -0.2760297213
H       -0.4981077515   -0.6504706740    2.1861041227
C        1.3535862452   -1.0994281784    4.1052591957
O        0.4186322885   -1.6454844608    4.6319319426
O        2.3541343348   -0.5472865535    4.8298364498
H        2.0881478331   -0.6791060388    5.7514193535
H        3.6787827151   -1.4750822929    2.7669420115
H        4.0284889132   -1.4467075224    0.3145410685
15   

H        2.1067586561   -0.9837345216   -1.2155328172
C        1.9581488538   -1.0062315803   -0.1394204146
C        3.0296469128   -1.2973336698    0.7117965552
C        2.8360211088   -1.3272371152    2.0988945858
C        1.5870224546   -1.0499659896    2.6422061447
C        0.5058383980   -0.7862553333    1.7866920519
C        0.6923813303   -0.7543645698    0.3996199358
H       -0.1466354476   -0.5407649845   -0.2565032013
H       -0.4808957311   -0.6098540211    2.2079199881
C        1.3771912808   -1.1498826846    4.1105338262
O        0.5893811345   -1.8830960933    4.6473983084
O        2.2370585734   -0.3838121259    4.8190275711
H        2.0116182605   -0.5557740392    5.7446682741
H        3.6699107081   -1.5622609222    2.7556355098
H        4.0120815084   -1.5040916324    0.2969651398
15   

H        2.0896327222   -0.9507976205   -1.2157595074
C        1.9514566085   -0.9933205770   -0.1388611701
C        3.0217368100   -1.3390519129    0.6934669541
C        2.8415329041   -1.3943200049    2.0815640886
C        1.6068408550   -1.0943136274    2.6431597313
C        0.5275817215   -0.7671178623    1.8080125099
C        0.7008670871   -0.7096808255    0.4199554532
H       -0.1361632109   -0.4497558865   -0.2218173692
H       -0.4463829757   -0.5603794214    2.2442917242
C        1.4183718898   -1.2028539988    4.1181781231
O        0.8236936331   -2.0837055336    4.6786978889
O        2.0538776129   -0.2230841074    4.7977099249
H        1.8716523574   -0.4128143978    5.7292539505
H        3.6732220103   -1.6688498507    2.7254210874
H        3.9926307300   -1.5674594237    0.2631027789
15   

H        2.0780869828   -0.9098244494   -1.2148585793
C        1.9525836096   -0.9734704036   -0.1374504866
C        3.0178276166   -1.3854870628    0.6707002947
C        2.8537545594   -1.4680159714    2.0594546257
C        1.6377601395   -1.1415041076    2.6452017903
C        0.5679592052   -0.7298467251    1.8353318183
C        0.7247767916   -0.6452629622    0.4467129499
H       -0.1065117265   -0.3263705777   -0.1756232074
H       -0.3858864587   -0.4777534623    2.2914383636
C        1.4730089987   -1.2405544486    4.1258747246
O        1.1012532053   -2.2147593928    4.7218263265
O        1.7928661686   -0.0917309997    4.7602209435
H        1.6470276638   -0.2803550899    5.6983165551
H        3.6824125111   -1.7907055532    2.6845548088
H        3.9726394575   -1.6427916012    0.2210765913
15   

H        2.0619300174   -0.8790493412   -1.2142884077
C        1.9514688923   -0.9557137083   -0.1360818875
C        3.0114372395   -1.4250709229    0.6471003793
C        2.8664447572   -1.5247666222    2.0368281587
C        1.6710777304   -1.1693990617    2.6487218174
C        0.6126024087   -0.6836219251    1.8642054744
C        0.7500734383   -0.5820557577    0.4747114387
H       -0.0749029347   -0.2118186658   -0.1272486586
H       -0.3175967214   -0.3865709125    2.3416221737
C        1.5383119488   -1.2544280516    4.1318157707
O        1.4097146879   -2.2666544531    4.7662480239
O        1.5122985377   -0.0369475187    4.7172104115
H        1.4075131507   -0.2213766926    5.6616550731
H        3.6920747422   -1.8895829495    2.6426976748
H        3.9478265273   -1.7126184669    0.1774794072
15   

H        2.0487281732   -0.8846212244   -1.2172489218
C        1.9501732334   -0.9588596888   -0.1377205035
C        3.0022849753   -1.4686812248    0.6303329418
C        2.8726607065   -1.5653425127    2.0217252364
C        1.6979208442   -1.1710126480    2.6518016138
C        0.6503151800   -0.6382455150    1.8810806259
C        0.7728984692   -0.5398084256    0.4900044548
H       -0.0447276824   -0.1354387596   -0.0998982080
H       -0.2602934129   -0.3018337052    2.3702923935
C        1.5964290045   -1.2427548451    4.1339544843
O        1.7085418184   -2.2410864406    4.7950790157
O        1.2701398125   -0.0543677897    4.6902014387
H        1.2142169692   -0.2364176895    5.6393674481
H        3.6927049650   -1.9612305502    2.6159929394
H        3.9210358181   -1.7898442474    0.1478198061
15   

H        2.0333481365   -0.9131401135   -1.2227800426
C        1.9445722752   -0.9746812774   -0.1416054189
C        2.9880041062   -1.5117233499    0.6193108842
C        2.8713850995   -1.5919213787    2.0127836059
C        1.7174240984   -1.1528007744    2.6543384806
C        0.6776824659   -0.5944719401    1.8881686327
C        0.7885129809   -0.5127328811    0.4950169742
H       -0.0224196345   -0.0880495532   -0.0898372808
H       -0.2191298692   -0.2253044612    2.3794631701
C        1.6441545613   -1.2154775829    4.1344176728
O        1.9849076384   -2.1537229375    4.8074671940
O        1.0718727292   -0.1194498492    4.6837193162
H        1.0708199077   -0.2971091685    5.6354752377
H        3.6854929608   -2.0098006845    2.6006347253
H        3.8902879028   -1.8671374729    0.1297716505
15   

H        2.0177214561   -0.9530388421   -1.2296521344
C        1.9381291135   -0.9963334809   -0.1468788120
C        2.9725888461   -1.5530641645    0.6115626615
C        2.8683765349   -1.6096800419    2.0070876944
C        1.7361895746   -1.1234446828    2.6558132027
C        0.7023970548   -0.5507019147    1.8890972183
C        0.8022460517   -0.4928423729    0.4939286456
H       -0.0027080952   -0.0551394172   -0.0896011943
H       -0.1835730374   -0.1515385918    2.3766151535
C        1.6838699788   -1.1792633719    4.1339537702
O        2.2303402313   -2.0124054923    4.8120087637
O        0.9059713764   -0.2185092855    4.6851732910
H        0.9568761677   -0.3830034653    5.6380264778
H        3.6777040846   -2.0441231840    2.5899185155
H        3.8587785077   -1.9425880754    0.1185777770
15   

H        1.9967624183   -0.9985488561   -1.2355066818
C        1.9271955879   -1.0218994607   -0.1514283005
C        2.9532646222   -1.5945606837    0.6058808628
C        2.8626774277   -1.6251127168    2.0031200482
C        1.7537231703   -1.0925346466    2.6572694761
C        0.7245635568   -0.5100196304    1.8889142392
C        0.8119452770   -0.4783032973    0.4920856270
H        0.0122840624   -0.0302803706   -0.0909041489
H       -0.1498627062   -0.0810754855    2.3718313214
C        1.7167859944   -1.1395533839    4.1348693982
O        2.4373567390   -1.8226228019    4.8195694351
O        0.7649306557   -0.3497078356    4.6851518666
H        0.8588025978   -0.4876063586    5.6390229546
H        3.6683853167   -2.0734524067    2.5805920354
H        3.8229864847   -2.0170558847    0.1107123050
15   

H        1.9716838087   -1.0475018410   -1.2388639934
C        1.9132133598   -1.0499014801   -0.1538816160
C        2.9316319753   -1.6363231638    0.6029275431
C        2.8559176633   -1.6392787990    2.0013721641
C        1.7711758701   -1.0614683951    2.6583320889
C        0.7462428406   -0.4710201603    1.8892632710
C        0.8193502593   -0.4666599004    0.4912754796
H        0.0247347072   -0.0093774388   -0.0914311515
H       -0.1134979914   -0.0118416390    2.3706635509
C        1.7452535820   -1.0947464362    4.1362315885
O        2.6010901807   -1.5895811598    4.8276185173
O        0.6531705493   -0.5093032342    4.6816360801
H        0.7779856514   -0.6089904186    5.6367401861
H        3.6566943161   -2.0997823951    2.5761517963
H        3.7841533856   -2.0910886405    0.1064277978
15   

H        1.9428082995   -1.0963258414   -1.2386207578
C        1.8962408636   -1.0779958612   -0.1532147417
C        2.9074102504   -1.6776607287    0.6032335782
C        2.8472829559   -1.6530115717    2.0022310415
C        1.7877701653   -1.0308317694    2.6592356365
C        0.7669194414   -0.4332575566    1.8913605168
C        0.8243409553   -0.4558363393    0.4928024459
H        0.0346412091    0.0102407233   -0.0896116378
H       -0.0752432305    0.0541578715    2.3761403675
C        1.7680236527   -1.0466950957    4.1378279895
O        2.7114770644   -1.3258307833    4.8353945750
O        0.5776517096   -0.6891155273    4.6743416241
H        0.7186248236   -0.7416513226    5.6309316981
H        3.6406252602   -2.1237622353    2.5789886773
H        3.7419411469   -2.1639323386    0.1060330919
15   

H        1.9153641414   -1.1385418922   -1.2355605214
C        1.8803414702   -1.1010626203   -0.1502144248
C        2.8824905462   -1.7163504076    0.6063618062
C        2.8371716160   -1.6662333475    2.0052864486
C        1.8045831785   -0.9994947031    2.6597614547
C        0.7894773751   -0.3928856869    1.8941242188
C        0.8314072364   -0.4399933107    0.4956122769
H        0.0476219329    0.0360743352   -0.0866954810
H       -0.0337940261    0.1199071215    2.3852615067
C        1.7840533419   -0.9976994261    4.1397371598
O        2.7616547916   -1.0494982360    4.8426783265
O        0.5419985601   -0.8781412938    4.6641638789
H        0.6825564408   -0.8801567089    5.6221921923
H        3.6205535829   -2.1476980948    2.5866194674
H        3.6978778050   -2.2341902588    0.1092897828
15   

H        1.8897887076   -1.1733114564   -1.2310668060
C        1.8653336422   -1.1182842107   -0.1461792591
C        2.8555596368   -1.7517523112    0.6116652796
C        2.8236111673   -1.6785019759    2.0100256110
C        1.8194261163   -0.9679417384    2.6602269800
C        0.8133161057   -0.3486614235    1.8959988446
C        0.8408646137   -0.4178539653    0.4980397202
H        0.0649311011    0.0702591475   -0.0847937957
H        0.0095146997    0.1890704674    2.3926627464
C        1.7934632355   -0.9448832003    4.1430370010
O        2.7502839752   -0.7666230362    4.8516483970
O        0.5468177469   -1.0710122488    4.6534114574
H        0.6708113877   -1.0220488808    5.6123856189
H        3.5954064933   -2.1730652506    2.5954338426
H        3.6506069487   -2.3015119500    0.1159354897
15   

H        1.8737394377   -1.2017561196   -1.2273502549
C        1.8548441036   -1.1316265139   -0.1432234944
C        2.8264986710   -1.7872614066    0.6201856194
C        2.8015836751   -1.6941567534    2.0176222523
C        1.8244835839   -0.9416422295    2.6591073548
C        0.8359084385   -0.3018934772    1.8917938251
C        0.8555569467   -0.3900062882    0.4947757536
H        0.0933598710    0.1148181016   -0.0919272826
H        0.0524912015    0.2650287295    2.3883476619
C        1.7910699962   -0.8900048866    4.1451899715
O        2.6770102737   -0.4859195492    4.8509845332
O        0.5974147456   -1.2735548561    4.6513674903
H        0.6959122910   -1.1757462066    5.6094475231
H        3.5577835863   -2.2057505888    2.6082045655
H        3.6011895809   -2.3695059101    0.1293566746
15   

H        1.8759941586   -1.2160237335   -1.2250215929
C        1.8528324157   -1.1344744588   -0.1417757137
C        2.7940655698   -1.8190166767    0.6345525913
C        2.7635605273   -1.7112254378    2.0308891714
C        1.8088804705   -0.9196584023    2.6566764989
C        0.8545995597   -0.2450486586    1.8781747265
C        0.8795039200   -0.3474883001    0.4821827721
H        0.1425632367    0.1822968199   -0.1146954683
H        0.0943202321    0.3599499184    2.3654000341
C        1.7699864762   -0.8345619914    4.1451889787
O        2.5399579867   -0.2183024690    4.8314923067
O        0.7111676388   -1.4888447866    4.6709637810
H        0.7857322865   -1.3482351955    5.6257615983
H        3.4961622194   -2.2446379006    2.6313886330
H        3.5494041266   -2.4346844327    0.1544804879
15   

H        1.9106465015   -1.2132796385   -1.2245241024
C        1.8684754383   -1.1259017280   -0.1423056375
C        2.7633789060   -1.8466281977    0.6560121859
C        2.7082077333   -1.7317931572    2.0510529156
C        1.7676188039   -0.9061614372    2.6526979286
C        0.8706339498   -0.1813077619    1.8528038354
C        0.9201931265   -0.2911093692    0.4579934461
H        0.2238368262    0.2723220616   -0.1565536800
H        0.1363160449    0.4686378730    2.3215827094
C        1.7235761227   -0.7864501195    4.1403386036
O        2.3327034541    0.0170083868    4.7929140153
O        0.9060190878   -1.6989713771    4.7090252555
H        0.9623961520   -1.5211176426    5.6587941575
H        3.4062956779   -2.2911159518    2.6686159015
H        3.5024428263   -2.4949347429    0.1939343854
15   

H        1.9514645936   -1.2011998296   -1.2237352045
C        1.8846900139   -1.1143216912   -0.1427152166
C        2.7255967262   -1.8757492377    0.6763720627
C        2.6387926198   -1.7617487095    2.0698606993
C        1.7112838138   -0.9050314319    2.6491887415
C        0.8813309247   -0.1260151231    1.8284329889
C        0.9626090253   -0.2353230644    0.4350648113
H        0.3135594372    0.3652814664   -0.1958566405
H        0.1751523615    0.5660345570    2.2801703521
C        1.6627618949   -0.7599451383    4.1322855712
O        2.0749866191    0.1840223909    4.7509295601
O        1.1553131156   -1.8515619243    4.7458396173
H        1.1933882167   -1.6420402082    5.6901006181
H        3.2972821150   -2.3501701351    2.7037195573
H        3.4482950060   -2.5539638189    0.2316805995
15   

H        1.9884390670   -1.1981662941   -1.2223627730
C        1.8991899494   -1.1130834717   -0.1428237974
C        2.6940578129   -1.9055251506    0.6924247561
C        2.5786775198   -1.7936236373    2.0840394834
C        1.6632464380   -0.9118247996    2.6466060274
C        0.8864810914   -0.0964131247    1.8086645261
C        0.9964016231   -0.2033858279    0.4171694115
H        0.3858390141    0.4242434463   -0.2257662783
H        0.1995395886    0.6233051794    2.2471979552
C        1.5962172013   -0.7529411735    4.1231769655
O        1.7812278409    0.2768966197    4.7161987547
O        1.3883462144   -1.9219425918    4.7700344408
H        1.3885023269   -1.6850548090    5.7086979043
H        3.2045983765   -2.4055511636    2.7287754615
H        3.4041944378   -2.6057712342    0.2618750063
15   

H        2.0149315586   -1.1944359219   -1.2224247731
C        1.9110674024   -1.1123788902   -0.1439589459
C        2.6681612480   -1.9321750697    0.6994125350
C        2.5343907127   -1.8244161650    2.0897965145
C        1.6372851376   -0.9181310888    2.6452160037
C        0.8985796586   -0.0768995155    1.7970061148
C        1.0272174283   -0.1795074780    0.4069586176
H        0.4454682815    0.4694568526   -0.2415052134
H        0.2252789663    0.6605291077    2.2278618088
C        1.5411137294   -0.7595713251    4.1160844188
O        1.4896788121    0.2955801061    4.6937603843
O        1.5887119392   -1.9344689278    4.7856507750
H        1.5334095314   -1.6844647259    5.7193958071
H        3.1353330598   -2.4599816804    2.7355714402
H        3.3639672749   -2.6510263298    0.2761816467
15   

H        2.0401965325   -1.1866167723   -1.2236655145
C        1.9256939921   -1.1083637872   -0.1459942820
C        2.6489175697   -1.9537232883    0.7011597297
C        2.5017324774   -1.8517468180    2.0907549812
C        1.6270710150   -0.9213588956    2.6441673895
C        0.9177713627   -0.0597306894    1.7893952802
C        1.0602963142   -0.1566433145    0.4005045119
H        0.5019776419    0.5104155123   -0.2502097292
H        0.2537897759    0.6897961335    2.2143288729
C        1.4956788248   -0.7734899047    4.1107672385
O        1.2113706235    0.2520767369    4.6764130352
O        1.7686308372   -1.9065713418    4.7996538715
H        1.6502098333   -1.6594060615    5.7283728909
H        3.0806725285   -2.5125272634    2.7312405159
H        3.3291004988   -2.6893796491    0.2814062240
15   

H        2.0648547030   -1.1740151353   -1.2244974889
C        1.9406967486   -1.1009767015   -0.1475280370
C        2.6308867132   -1.9717979704    0.7007474127
C        2.4713770199   -1.8775965807    2.0896518253
C        1.6211151905   -0.9241232014    2.6435138155
C        0.9377966758   -0.0436201281    1.7849997398
C        1.0931463612   -0.1330593372    0.3971575372
H        0.5565642438    0.5511417735   -0.2540590462
H        0.2815477033    0.7154938291    2.2051743257
C        1.4546560578   -0.7934231178    4.1070663019
O        0.9511230189    0.1524037904    4.6606374231
O        1.9392658240   -1.8416819917    4.8143220764
H        1.7607572849   -1.6121210045    5.7380121081
H        3.0265197883   -2.5652936845    2.7226411243
H        3.2946106658   -2.7230501963    0.2822494144
15   

H        2.1248479798   -1.0886096610   -1.2217068622
C        1.9689205581   -1.0630878882   -0.1466950810
C        3.0551204045   -1.1833803417    0.7247592630
C        2.8547364967   -1.1505359610    2.1112145931
C        1.5758198306   -0.9981885517    2.6410089043
C        0.4868535577   -0.8776673124    1.7576335617
C        0.6811191847   -0.9097913033    0.3722462971
H       -0.1692852995   -0.8155214570   -0.2971323804
H       -0.5184873121   -0.7580303328    2.1557490898
C        1.3386134267   -0.9604966406    4.0999134626
O        0.2563915372   -0.8311031359    4.6169866066
O        2.4596394790   -1.0856136805    4.8494203436
H        2.1436198305   -1.0425286993    5.7637993697
H        3.7224386955   -1.2469562501    2.7588657632
H        4.0585608011   -1.3027877300    0.3261256957
