15   

H        1.8844836529   -1.1974115150   -1.1372589256
C        1.8989259370   -1.1491076128   -0.0516467002
C        2.9606301391   -1.7132789767    0.6606461712
C        2.9827074454   -1.6488140444    2.0589067150
C        1.9377002776   -1.0273812243    2.7676382696
C        0.8787645177   -0.4514122550    2.0340868566
C        0.8609360383   -0.5150090477    0.6358012071
H        0.0425690462   -0.0641620916    0.0808542955
H        0.0688492930    0.0724084101    2.5336911328
C        1.9680897212   -0.9741908872    4.2380961931
O        2.9986689886   -1.1458832446    4.8281131912
O        0.8177008376   -0.7689023661    4.9117254249
H        0.0392105000   -0.8750360873    4.3499263529
H        3.8160621590   -2.0885547474    2.6033531604
H        3.7727307211   -2.2015690280    0.1292295181
15   

H        1.8836721746   -1.2629963372   -1.1392468862
C        1.8975130045   -1.2018918311   -0.0542876526
C        2.9496613573   -1.7733265058    0.6666800237
C        2.9716342448   -1.6911766895    2.0642052418
C        1.9362440400   -1.0429525683    2.7629972476
C        0.8870038376   -0.4610353280    2.0206424026
C        0.8685940638   -0.5432186186    0.6235270345
H        0.0576315582   -0.0865552368    0.0625076191
H        0.0863573374    0.0823216733    2.5150184609
C        1.9669692172   -0.9570638609    4.2318026208
O        2.9798986341   -1.1865614993    4.8318058916
O        0.8201798788   -0.6788194542    4.8963881059
H        0.0378185925   -0.9607088413    4.4072844056
H        3.7987832580   -2.1346416181    2.6149665985
H        3.7551671916   -2.2796948550    0.1422472803
15   

H        1.8958468135   -1.3125079478   -1.1453676662
C        1.9057395001   -1.2419773996   -0.0609631021
C        2.9499780166   -1.8156599280    0.6699166646
C        2.9671773414   -1.7205219881    2.0668718043
C        1.9351402953   -1.0554397285    2.7547952614
C        0.8935594698   -0.4730686638    2.0023557030
C        0.8794324646   -0.5687201471    0.6062337700
H        0.0740209238   -0.1107293434    0.0383788239
H        0.0955352831    0.0802666140    2.4903533948
C        1.9609908645   -0.9456829309    4.2222495775
O        2.9519525252   -1.2278115673    4.8353835352
O        0.8187592339   -0.5923984266    4.8733959186
H        0.0425716754   -1.0278574338    4.5047499681
H        3.7891122444   -2.1644859779    2.6248651472
H        3.7535248076   -2.3330175554    0.1533414543
15   

H        1.9219856689   -1.3339008202   -1.1566115040
C        1.9244083219   -1.2605647201   -0.0723838263
C        2.9607636068   -1.8366236617    0.6679744927
C        2.9681704473   -1.7376297962    2.0649090346
C        1.9345627794   -1.0648770908    2.7430505891
C        0.9005089247   -0.4818434889    1.9810001581
C        0.8957455983   -0.5817023696    0.5852589651
H        0.0954019699   -0.1228546820    0.0110256901
H        0.0999446582    0.0732128894    2.4631307146
C        1.9493363838   -0.9460740059    4.2102333606
O        2.9157964688   -1.2750075839    4.8379326195
O        0.8161977537   -0.5119863117    4.8460295134
H        0.0570666120   -1.0666835643    4.6424416260
H        3.7843996380   -2.1830184635    2.6299483754
H        3.7659086513   -2.3585323443    0.1586068989
15   

H        1.9614646598   -1.3224302009   -1.1733843530
C        1.9526737744   -1.2536173839   -0.0889323197
C        2.9803821563   -1.8339634942    0.6601875085
C        2.9726497701   -1.7413374010    2.0576716460
C        1.9329501216   -1.0694566960    2.7274538918
C        0.9072911535   -0.4834498767    1.9565384235
C        0.9172729717   -0.5772448287    0.5605040435
H        0.1222456220   -0.1165688844   -0.0195395378
H        0.0997829055    0.0659349811    2.4336925683
C        1.9291472176   -0.9585095122    4.1957072780
O        2.8728462897   -1.3253088097    4.8365547622
O        0.8133990387   -0.4410092316    4.8144934309
H        0.0849154923   -1.0676539482    4.8165609711
H        3.7819504952   -2.1906286518    2.6293855329
H        3.7902691955   -2.3546160669    0.1571877917
15   

H        2.0124671007   -1.2864570070   -1.1912259618
C        1.9887860735   -1.2287785132   -0.1063858659
C        3.0061193251   -1.8165359343    0.6511123082
C        2.9781720188   -1.7394003316    2.0493697997
C        1.9290785863   -1.0744424574    2.7116036125
C        0.9136997255   -0.4819060340    1.9321022623
C        0.9434630820   -0.5606416579    0.5354837220
H        0.1549017337   -0.0960636999   -0.0501633087
H        0.0962681229    0.0569009771    2.4044494307
C        1.8997871848   -0.9847667810    4.1816034081
O        2.8238412094   -1.3846559978    4.8327016725
O        0.8135931305   -0.3839986397    4.7813436128
H        0.1343853978   -1.0226276622    5.0130069205
H        3.7788257119   -2.1957546608    2.6274542617
H        3.8230983227   -2.3317368903    0.1541014023
15   

H        2.0645199132   -1.2497809502   -1.2060674414
C        2.0244734858   -1.2045354806   -0.1211522336
C        3.0313964798   -1.7988721680    0.6450826197
C        2.9814342914   -1.7388868531    2.0436503441
C        1.9210715178   -1.0834284967    2.6976862018
C        0.9160197020   -0.4850758161    1.9090873635
C        0.9674222492   -0.5470988716    0.5123207078
H        0.1854484358   -0.0791667134   -0.0793890919
H        0.0874564643    0.0417524787    2.3755844779
C        1.8644636305   -1.0161122555    4.1688072952
O        2.7727895320   -1.4447172497    4.8270557774
O        0.8119089140   -0.3497498152    4.7476210989
H        0.2118246188   -0.9482730340    5.2015791505
H        3.7735150308   -2.2016828716    2.6282178236
H        3.8568864246   -2.3066964613    0.1546817887
15   

H        2.1054629619   -1.2293150141   -1.2160851544
C        2.0505481738   -1.1936018916   -0.1314905715
C        3.0484527020   -1.7918669011    0.6434523332
C        2.9786944463   -1.7449673748    2.0417457687
C        1.9079334698   -1.0974934083    2.6870041792
C        0.9117506324   -0.4960071599    1.8893575725
C        0.9825264154   -0.5455183067    0.4929998748
H        0.2063023203   -0.0760372448   -0.1049738584
H        0.0733160737    0.0209175417    2.3493628931
C        1.8283876185   -1.0446254665    4.1582480503
O        2.7179557128   -1.5064188120    4.8231435473
O        0.8069598146   -0.3320784798    4.7179659736
H        0.3143662119   -0.8554760994    5.3592634566
H        3.7635668491   -2.2116499798    2.6327670279
H        3.8820119413   -2.2931009883    0.1600465054
15   

H        2.1395102014   -1.2160500536   -1.2221904269
C        2.0722386959   -1.1858927544   -0.1381392658
C        3.0670559939   -1.7782284585    0.6453619844
C        2.9811090719   -1.7386662983    2.0430524170
C        1.8969736822   -1.1044937582    2.6790795217
C        0.9035606067   -0.5098791967    1.8727678296
C        0.9907003639   -0.5516392325    0.4771425365
H        0.2160998644   -0.0875747612   -0.1271112071
H        0.0537558977   -0.0056932748    2.3261863355
C        1.7990665535   -1.0595178949    4.1496603314
O        2.6824184080   -1.5241133775    4.8236025509
O        0.7732467616   -0.3583028982    4.6950932323
H        0.4261062690   -0.8001900064    5.4800685747
H        3.7633095114   -2.2012042630    2.6407306521
H        3.9105164096   -2.2695180776    0.1690294733
15   

H        2.1597708705   -1.2033963866   -1.2262336939
C        2.0832734767   -1.1788243690   -0.1426622811
C        3.0755153702   -1.7681125956    0.6464388678
C        2.9774434379   -1.7359834004    2.0435511960
C        1.8837195773   -1.1121797066    2.6732774519
C        0.8926067539   -0.5213403999    1.8614183444
C        0.9918908292   -0.5555253330    0.4664158567
H        0.2186556818   -0.0946659699   -0.1420084067
H        0.0346213392   -0.0271829022    2.3105994344
C        1.7732893668   -1.0739759448    4.1431246634
O        2.6438080444   -1.5545251973    4.8245058725
O        0.7399032048   -0.3917489861    4.6808940055
H        0.5371981302   -0.7272174910    5.5654997440
H        3.7573436212   -2.1965556250    2.6456725794
H        3.9261456380   -2.2515679013    0.1748891805
15   

H        2.1789667246   -1.1891787600   -1.2286798737
C        2.0952159055   -1.1693741071   -0.1455524565
C        3.0879682242   -1.7519980142    0.6479201139
C        2.9803164889   -1.7262607975    2.0444847454
C        1.8762592919   -1.1158457590    2.6690379181
C        0.8843833261   -0.5322794390    1.8529577021
C        0.9934514164   -0.5596212101    0.4585602221
H        0.2193251893   -0.1046448812   -0.1531446092
H        0.0177766932   -0.0501305528    2.2987463260
C        1.7556163487   -1.0842057432    4.1380139996
O        2.6168335977   -1.5726145196    4.8267461092
O        0.6983563091   -0.4452919620    4.6712270085
H        0.6316778721   -0.6531536498    5.6154453424
H        3.7600926644   -2.1822252614    2.6502287640
H        3.9461101327   -2.2257391338    0.1801524201
15   

H        2.1947374727   -1.1718991924   -1.2287321888
C        2.1059674011   -1.1574189589   -0.1459220234
C        3.1015893177   -1.7322258707    0.6496946401
C        2.9872788780   -1.7136386475    2.0458615036
C        1.8733664040   -1.1187168766    2.6677320617
C        0.8783520500   -0.5435259324    1.8495567250
C        0.9943766107   -0.5631388730    0.4556082816
H        0.2175954362   -0.1149158355   -0.1577180234
H        0.0034216839   -0.0748250929    2.2934684519
C        1.7453979085   -1.0948666235    4.1361303246
O        2.6008502046   -1.5892391563    4.8282333557
O        0.6573499088   -0.5109972470    4.6661220628
H        0.6999389110   -0.5653211222    5.6333332705
H        3.7687698464   -2.1642752591    2.6533678604
H        3.9668079174   -2.1948618697    0.1838598908
15   

H        2.2009820656   -1.1492783934   -1.2274091829
C        2.1103882138   -1.1418747282   -0.1446768240
C        3.1112076523   -1.7098788983    0.6492615715
C        2.9944053865   -1.7007243652    2.0452979090
C        1.8725224976   -1.1226135964    2.6688219873
C        0.8719831125   -0.5547475749    1.8522414628
C        0.9908372768   -0.5643550410    0.4584089199
H        0.2096732148   -0.1221331061   -0.1537023024
H       -0.0099696961   -0.1004093566    2.2971438669
C        1.7418525834   -1.1091454935    4.1372193448
O        2.5956212908   -1.6110535645    4.8255198551
O        0.6233568342   -0.5811941972    4.6668987331
H        0.7380839982   -0.4603478616    5.6215896631
H        3.7795791096   -2.1469071512    2.6513535470
H        3.9821292681   -2.1604601943    0.1822317672
15   

H        2.2026977043   -1.1256015478   -1.2237546180
C        2.1119331739   -1.1268848159   -0.1410068156
C        3.1182429161   -1.6906776210    0.6489068318
C        3.0011358338   -1.6930444595    2.0449202972
C        1.8732985174   -1.1310634012    2.6726769235
C        0.8668929279   -0.5679393715    1.8599345759
C        0.9863269948   -0.5656079481    0.4660952812
H        0.2005685583   -0.1274447141   -0.1430522341
H       -0.0207103769   -0.1274573198    2.3074054812
C        1.7425057022   -1.1297618481    4.1413487381
O        2.5948292523   -1.6432847721    4.8216789977
O        0.5999696414   -0.6453359559    4.6728183693
H        0.7515957899   -0.3386902404    5.5778783972
H        3.7903771399   -2.1366875615    2.6475812182
H        3.9934774832   -2.1295433636    0.1787777957
15   

H        2.2024825629   -1.1019440954   -1.2185553442
C        2.1119023904   -1.1140235991   -0.1358498645
C        3.1223022222   -1.6781167628    0.6485533427
C        3.0053602726   -1.6947196580    2.0444543226
C        1.8737106366   -1.1466520067    2.6777359405
C        0.8627481687   -0.5838443813    1.8704087831
C        0.9821273492   -0.5671844158    0.4766447435
H        0.1928267908   -0.1297624938   -0.1284594264
H       -0.0290771251   -0.1558080899    2.3213993715
C        1.7438508674   -1.1595768666    4.1464720475
O        2.5897002815   -1.6921276373    4.8182492012
O        0.5891191364   -0.6919566598    4.6844649821
H        0.7563617458   -0.2017551547    5.4991357891
H        3.7976015481   -2.1390584853    2.6427142356
H        4.0004582608   -2.1065311467    0.1742257030
15   

H        2.1953609202   -1.0663981093   -1.2108954541
C        2.1066649711   -1.0919038823   -0.1282510285
C        3.1239639855   -1.6550193916    0.6478125152
C        3.0094442644   -1.6892375279    2.0435218923
C        1.8734311886   -1.1600171148    2.6850123709
C        0.8549392325   -0.5989624609    1.8860768836
C        0.9721566734   -0.5643111124    0.4924001872
H        0.1772350888   -0.1287161097   -0.1066537062
H       -0.0417701202   -0.1876468638    2.3427172684
C        1.7466811696   -1.1926938506    4.1535312613
O        2.5937540428   -1.7314971790    4.8159724646
O        0.5843044840   -0.7355723178    4.7051138892
H        0.7466948565   -0.0720224771    5.3842213722
H        3.8068013676   -2.1332932961    2.6352647318
H        4.0054385989   -2.0694184064    0.1671735912
15   

H        2.1905477736   -1.0213881750   -1.1987902997
C        2.1017210067   -1.0645464887   -0.1166909271
C        3.1207559529   -1.6369316608    0.6502437967
C        3.0057333190   -1.6948542761    2.0450559605
C        1.8682750672   -1.1791159507    2.6946407960
C        0.8474456730   -0.6093581036    1.9051304451
C        0.9649110966   -0.5516564681    0.5121772666
H        0.1680548665   -0.1106965163   -0.0803921507
H       -0.0525486553   -0.2119843057    2.3675035666
C        1.7415560525   -1.2388603941    4.1617148102
O        2.5707986420   -1.8107868799    4.8154003260
O        0.6010662935   -0.7318610651    4.7354519092
H        0.7746081666    0.0716806668    5.2340629708
H        3.8038329764   -2.1467414188    2.6299714482
H        4.0036894020   -2.0406511608    0.1631593787
15   

H        2.1933772814   -0.9585884761   -1.1807849613
C        2.1027729371   -1.0221945886   -0.0998082092
C        3.1220295657   -1.6064665698    0.6578007972
C        3.0042613650   -1.6921126227    2.0508730504
C        1.8645695290   -1.1913451698    2.7078769302
C        0.8429085409   -0.6101934673    1.9280132664
C        0.9629537229   -0.5253121716    0.5366064884
H        0.1652594648   -0.0772855390   -0.0495676405
H       -0.0614265826   -0.2288810055    2.3953441277
C        1.7335516212   -1.2860274488    4.1720040923
O        2.5470794022   -1.8862187993    4.8167186007
O        0.6300193536   -0.7166803774    4.7707449260
H        0.8012632659    0.1859191574    5.0515072455
H        3.8016590416   -2.1543678935    2.6287694651
H        4.0068323829   -1.9987511504    0.1647051365
15   

H        2.1960985979   -0.8972112224   -1.1598415797
C        2.1040389411   -0.9793059857   -0.0801961956
C        3.1227982391   -1.5758698030    0.6684076493
C        3.0027446995   -1.6868028489    2.0594081214
C        1.8620051949   -1.1980368675    2.7233573300
C        0.8401410024   -0.6051535305    1.9526601938
C        0.9623440450   -0.4955704383    0.5631037805
H        0.1643427515   -0.0402847578   -0.0171119197
H       -0.0679741387   -0.2380985488    2.4240059843
C        1.7266546409   -1.3254933139    4.1840171593
O        2.5229916889   -1.9593575847    4.8163591587
O        0.6772039887   -0.6878346228    4.8066287560
H        0.8181736138    0.2612559474    4.8588873728
H        3.7989621336   -2.1598045637    2.6303671685
H        4.0085897828   -1.9589605474    0.1697899111
15   

H        2.1842839088   -0.8585713688   -1.1414696300
C        2.0943912348   -0.9525364053   -0.0625703736
C        3.1143848047   -1.5582440611    0.6768468400
C        2.9970435975   -1.6853283214    2.0665811877
C        1.8585852784   -1.2025973732    2.7386679485
C        0.8345070908   -0.6014886703    1.9771893189
C        0.9539591937   -0.4762346971    0.5886179277
H        0.1545041949   -0.0157796216    0.0144334534
H       -0.0748366852   -0.2435732602    2.4530366853
C        1.7265393064   -1.3498761132    4.1973771368
O        2.5034087052   -2.0224237029    4.8141474954
O        0.7378277358   -0.6540267079    4.8415011394
H        0.8070926336    0.2927333846    4.6857291610
H        3.7938462211   -2.1659217891    2.6305014722
H        3.9988846425   -1.9363377364    0.1720619755
15   

H        2.1519458520   -0.8483873912   -1.1305821776
C        2.0684024967   -0.9471891157   -0.0515713270
C        3.0908370419   -1.5603855923    0.6780509239
C        2.9819746323   -1.6937068668    2.0677289953
C        1.8505827146   -1.2086843405    2.7499159551
C        0.8228020186   -0.6013047332    1.9982718549
C        0.9337154249   -0.4703479411    0.6093680443
H        0.1321172613   -0.0054472420    0.0417323421
H       -0.0838836224   -0.2448957814    2.4799959021
C        1.7320799397   -1.3605367496    4.2090372779
O        2.4827995999   -2.0780554326    4.8083043997
O        0.8064534336   -0.6146942322    4.8726871738
H        0.7703461006    0.2910990003    4.5467632775
H        3.7807971636   -2.1795564163    2.6243889929
H        3.9708255634   -1.9392087193    0.1658892829
15   

H        2.1034278117   -0.8647322557   -1.1265610669
C        2.0299444779   -0.9618845202   -0.0466427816
C        3.0549656202   -1.5824813467    0.6727592993
C        2.9596144611   -1.7129568679    2.0635117558
C        1.8403924552   -1.2166606041    2.7574640596
C        0.8086375788   -0.6030552046    2.0161182274
C        0.9059070892   -0.4755939485    0.6256806452
H        0.1022855297   -0.0056269585    0.0650846847
H       -0.0911833061   -0.2394315982    2.5047690053
C        1.7446312744   -1.3600023303    4.2189677666
O        2.4629322401   -2.1234549509    4.8019628397
O        0.8796504269   -0.5710367319    4.8998210819
H        0.7136785513    0.2641547569    4.4462994831
H        3.7609914957   -2.2031280057    2.6127856497
H        3.9269207522   -1.9684240591    0.1521627851
15   

H        2.0483716006   -0.9004103891   -1.1277967392
C        1.9860114686   -0.9912922960   -0.0466180069
C        3.0102240302   -1.6234076224    0.6635123789
C        2.9298571739   -1.7445980212    2.0558592511
C        1.8278834568   -1.2264035227    2.7613005514
C        0.7957475803   -0.6018673365    2.0292944559
C        0.8776482112   -0.4847292588    0.6367657815
H        0.0748299239   -0.0057050272    0.0827150832
H       -0.0926450340   -0.2202696837    2.5243671529
C        1.7595380070   -1.3521456080    4.2260588572
O        2.4386596347   -2.1607815522    4.7957903969
O        0.9540626887   -0.5217672158    4.9195987469
H        0.6435407285    0.2201966115    4.3848134531
H        3.7315664276   -2.2416880429    2.5984803656
H        3.8706039926   -2.0242025388    0.1348840216
15   

H        1.9917912791   -0.9392916790   -1.1330658711
C        1.9428054320   -1.0198662564   -0.0503772112
C        2.9616867485   -1.6703968259    0.6501048578
C        2.8991578955   -1.7770343656    2.0443351089
C        1.8214338610   -1.2257538768    2.7626950498
C        0.7944339209   -0.5812687162    2.0399399851
C        0.8580568856   -0.4798258663    0.6450023989
H        0.0601675300    0.0153259049    0.0980784571
H       -0.0754944259   -0.1674582253    2.5406505697
C        1.7842938436   -1.3319329438    4.2312348889
O        2.4463763271   -2.1623277464    4.7902588936
O        1.0071194014   -0.4880788124    4.9361972834
H        0.5258321485    0.1307977126    4.3713620098
H        3.6984680563   -2.2865870031    2.5789348111
H        3.8049744038   -2.0954898942    0.1129513878
