15   

H        1.8844837330   -1.1974113960   -1.1372589369
C        1.8989259966   -1.1491075171   -0.0516467099
C        2.9606302371   -1.7132788045    0.6606461635
C        2.9827075272   -1.6488138821    2.0589067072
C        1.9377003028   -1.0273811583    2.7676382645
C        0.8787644969   -0.4514122741    2.0340868506
C        0.8609360345   -0.5150090555    0.6358011988
H        0.0425690104   -0.0641621648    0.0808542828
H        0.0688492216    0.0724083136    2.5336911252
C        1.9680897212   -0.9741908872    4.2380961931
O        2.9986689886   -1.1458832446    4.8281131912
O        0.8177008376   -0.7689023661    4.9117254249
H        0.0392105000   -0.8750360873    4.3499263529
H        3.8160622723   -2.0885545258    2.6033531536
H        3.7727308611   -2.2015687896    0.1292295129
15   

H        1.8836720818   -1.2629965166   -1.1392468650
C        1.8975129533   -1.2018919179   -0.0542876383
C        2.9496612782   -1.7733266336    0.6666800479
C        2.9716342024   -1.6911767222    2.0642052567
C        1.9362440638   -1.0429524836    2.7629972455
C        0.8870039008   -0.4610351838    2.0206423951
C        0.8685940922   -0.5432185572    0.6235270300
H        0.0576316100   -0.0865551486    0.0625076019
H        0.0863574487    0.0823218890    2.5150184526
C        1.9669692172   -0.9570638609    4.2318026208
O        2.9798986341   -1.1865614993    4.8318058916
O        0.8201798788   -0.6788194542    4.8963881059
H        0.0378185925   -0.9607088413    4.4072844056
H        3.7987831764   -2.1346417020    2.6149666298
H        3.7551670536   -2.2796951029    0.1422473296
15   

H        1.8958472239   -1.3125070072   -1.1453677122
C        1.9057398550   -1.2419765988   -0.0609631402
C        2.9499782129   -1.8156594187    0.6699166227
C        2.9671774383   -1.7205216768    2.0668717724
C        1.9351404593   -1.0554393309    2.7547952411
C        0.8935598065   -0.4730679586    2.0023557001
C        0.8794328930   -0.5687192477    0.6062337533
H        0.0740214587   -0.1107282381    0.0383788269
H        0.0955356846    0.0802673631    2.4903534452
C        1.9609908645   -0.9456829309    4.2222495775
O        2.9519525252   -1.2278115673    4.8353835352
O        0.8187592339   -0.5923984266    4.8733959186
H        0.0425716754   -1.0278574338    4.5047499681
H        3.7891121927   -2.1644859333    2.6248651201
H        3.7535249393   -2.3330171400    0.1533414055
15   

H        1.9219863171   -1.3338990582   -1.1566116339
C        1.9244088804   -1.2605632245   -0.0723839379
C        2.9607641150   -1.8366223302    0.6679743209
C        2.9681708137   -1.7376288548    2.0649088889
C        1.9345630531   -1.0648763810    2.7430505299
C        0.9005092672   -0.4818425731    1.9810001634
C        0.8957460793   -0.5817010750    0.5852589398
H        0.0954024743   -0.1228532846    0.0110257146
H        0.0999449156    0.0732136099    2.4631308000
C        1.9493363838   -0.9460740059    4.2102333606
O        2.9157964688   -1.2750075839    4.8379326195
O        0.8161977537   -0.5119863117    4.8460295134
H        0.0570666120   -1.0666835643    4.6424416260
H        3.7843999371   -2.1830177002    2.6299481859
H        3.7659092130   -2.3585308689    0.1586066654
15   

H        1.9614657276   -1.3224281947   -1.1733844772
C        1.9526746649   -1.2536156800   -0.0889324276
C        2.9803830190   -1.8339618620    0.6601873790
C        2.9726503946   -1.7413361992    2.0576715390
C        1.9329505389   -1.0694558629    2.7274538314
C        0.9072916137   -0.4834489473    1.9565383906
C        0.9172736594   -0.5772434735    0.5605039817
H        0.1222463103   -0.1165675042   -0.0195395811
H        0.0997831830    0.0659355818    2.4336925988
C        1.9291472176   -0.9585095122    4.1957072780
O        2.8728462897   -1.3253088097    4.8365547622
O        0.8133990387   -0.4410092316    4.8144934309
H        0.0849154923   -1.0676539482    4.8165609711
H        3.7819510527   -2.1906275688    2.6293854256
H        3.7902701981   -2.3546141987    0.1571876417
15   

H        2.0124681945   -1.2864547760   -1.1912260703
C        1.9887870200   -1.2287766092   -0.1063859612
C        3.0061201396   -1.8165343096    0.6511121734
C        2.9781726062   -1.7393991779    2.0493696865
C        1.9290790758   -1.0744415163    2.7116035605
C        0.9137003774   -0.4819047686    1.9321022473
C        0.9434639562   -0.5606399231    0.5354836851
H        0.1549026935   -0.0960617815   -0.0501633155
H        0.0962686768    0.0569020419    2.4044494739
C        1.8997871848   -0.9847667810    4.1816034081
O        2.8238412094   -1.3846559978    4.8327016725
O        0.8135931305   -0.3839986397    4.7813436128
H        0.1343853978   -1.0226276622    5.0130069205
H        3.7788261478   -2.1957537963    2.6274541286
H        3.8230991786   -2.3317351615    0.1541012257
15   

H        2.0645207721   -1.2497792196   -1.2060674932
C        2.0244742500   -1.2045339746   -0.1211522796
C        3.0313971919   -1.7988707982    0.6450825367
C        2.9814348492   -1.7388858339    2.0436502727
C        1.9210719545   -1.0834277184    2.6976861785
C        0.9160202233   -0.4850748532    1.9090873740
C        0.9674229255   -0.5470975538    0.5123207096
H        0.1854491360   -0.0791653170   -0.0793890591
H        0.0874568753    0.0417532322    2.3755845285
C        1.8644636305   -1.0161122555    4.1688072952
O        2.7727895320   -1.4447172497    4.8270557774
O        0.8119089140   -0.3497498152    4.7476210989
H        0.2118246188   -0.9482730340    5.2015791505
H        3.7735155039   -2.2016820252    2.6282177288
H        3.8568871863   -2.3066949783    0.1546816711
15   

H        2.1054637804   -1.2293134825   -1.2160851642
C        2.0505488739   -1.1936006152   -0.1314905795
C        3.0484532493   -1.7918659089    0.6434523025
C        2.9786948204   -1.7449667351    2.0417457429
C        1.9079338179   -1.0974928339    2.6870041765
C        0.9117511505   -0.4960062810    1.8893575884
C        0.9825271022   -0.5455170825    0.4929998911
H        0.2063031091   -0.0760358164   -0.1049738125
H        0.0733165590    0.0209183481    2.3493629270
C        1.8283876185   -1.0446254665    4.1582480503
O        2.7179557128   -1.5064188120    4.8231435473
O        0.8069598146   -0.3320784798    4.7179659736
H        0.3143662119   -0.8554760994    5.3592634566
H        3.7635670742   -2.2116496188    2.6327669803
H        3.8820124835   -2.2930999731    0.1600464449
15   

H        2.1395106232   -1.2160494644   -1.2221904195
C        2.0722390674   -1.1858922244   -0.1381392601
C        3.0670563446   -1.7782279493    0.6453619991
C        2.9811093453   -1.7386658922    2.0430524303
C        1.8969738891   -1.1044934533    2.6790795239
C        0.9035608534   -0.5098788440    1.8727678211
C        0.9907006880   -0.5516387722    0.4771425296
H        0.2161001943   -0.0875742995   -0.1271112193
H        0.0537560890   -0.0056930109    2.3261863185
C        1.7990665535   -1.0595178949    4.1496603314
O        2.6824184080   -1.5241133775    4.8236025509
O        0.7732467616   -0.3583028982    4.6950932323
H        0.4261062690   -0.8001900064    5.4800685747
H        3.7633097554   -2.2012038952    2.6407306739
H        3.9105167902   -2.2695175237    0.1690294944
15   

H        2.1597708066   -1.2033960755   -1.2262337219
C        2.0832734672   -1.1788240726   -0.1426623021
C        3.0755153809   -1.7681123268    0.6464387999
C        2.9774434964   -1.7359831729    2.0435511389
C        1.8837196494   -1.1121795124    2.6732774474
C        0.8926068233   -0.5213401421    1.8614183836
C        0.9918908544   -0.5555250359    0.4664158932
H        0.2186556823   -0.0946656605   -0.1420083260
H        0.0346214168   -0.0271826513    2.3105995002
C        1.7732893668   -1.0739759448    4.1431246634
O        2.6438080444   -1.5545251973    4.8245058725
O        0.7399032048   -0.3917489861    4.6808940055
H        0.5371981302   -0.7272174910    5.5654997440
H        3.7573436863   -2.1965554423    2.6456724828
H        3.9261456094   -2.2515676483    0.1748890603
15   

H        2.1789667538   -1.1891784512   -1.2286798719
C        2.0952159237   -1.1693738778   -0.1455524552
C        3.0879681975   -1.7519979035    0.6479200857
C        2.9803164601   -1.7262607603    2.0444847182
C        1.8762593030   -1.1158456812    2.6690379191
C        0.8843833674   -0.5322792653    1.8529577301
C        0.9934514630   -0.5596209607    0.4585602518
H        0.2193252624   -0.1046445546   -0.1531445557
H        0.0177767524   -0.0501303577    2.2987463681
C        1.7556163487   -1.0842057432    4.1380139996
O        2.6168335977   -1.5726145196    4.8267461092
O        0.6983563091   -0.4452919620    4.6712270085
H        0.6316778721   -0.6531536498    5.6154453424
H        3.7600925987   -2.1822253137    2.6502287173
H        3.9461100723   -2.2257390553    0.1801523635
15   

H        2.1947375023   -1.1718994251   -1.2287321865
C        2.1059674275   -1.1574191064   -0.1459220256
C        3.1015893111   -1.7322260360    0.6496946691
C        2.9872788531   -1.7136387500    2.0458615316
C        1.8733664088   -1.1187168949    2.6677320562
C        0.8783521079   -0.5435258940    1.8495566909
C        0.9943766836   -0.5631388933    0.4556082446
H        0.2175955603   -0.1149158015   -0.1577180835
H        0.0034217727   -0.0748249654    2.2934683824
C        1.7453979085   -1.0948666235    4.1361303246
O        2.6008502046   -1.5892391563    4.8282333557
O        0.6573499088   -0.5109972470    4.6661220628
H        0.6999389110   -0.5653211222    5.6333332705
H        3.7687697812   -2.1642753835    2.6533679230
H        3.9668078917   -2.1948620918    0.1838599475
15   

H        2.2009820622   -1.1492785554   -1.2274091924
C        2.1103882009   -1.1418748752   -0.1446768332
C        3.1112076360   -1.7098790302    0.6492615779
C        2.9944053657   -1.7007244632    2.0452979167
C        1.8725224759   -1.1226136729    2.6688219819
C        0.8719830878   -0.5547476790    1.8522414408
C        0.9908372545   -0.5643551866    0.4584088955
H        0.2096731889   -0.1221332787   -0.1537023403
H       -0.0099697198   -0.1004094425    2.2971438315
C        1.7418525834   -1.1091454935    4.1372193448
O        2.5956212908   -1.6110535645    4.8255198551
O        0.6233568342   -0.5811941972    4.6668987331
H        0.7380839982   -0.4603478616    5.6215896631
H        3.7795790878   -2.1469072416    2.6513535635
H        3.9821292467   -2.1604603454    0.1822317815
15   

H        2.2026975457   -1.1256017121   -1.2237546177
C        2.1119330183   -1.1268850000   -0.1410068152
C        3.1182427651   -1.6906778122    0.6489068238
C        3.0011357100   -1.6930446349    2.0449202884
C        1.8732984152   -1.1310635538    2.6726769223
C        0.8668927981   -0.5679395498    1.8599345885
C        0.9863268430   -0.5656081363    0.4660952928
H        0.2005684037   -0.1274448913   -0.1430522103
H       -0.0207104919   -0.1274574760    2.3074055038
C        1.7425057022   -1.1297618481    4.1413487381
O        2.5948292523   -1.6432847721    4.8216789977
O        0.5999696414   -0.6453359559    4.6728183693
H        0.7515957899   -0.3386902404    5.5778783972
H        3.7903770336   -2.1366877116    2.6475812056
H        3.9934773303   -2.1295435558    0.1787777889
15   

H        2.2024821893   -1.1019446105   -1.2185554031
C        2.1119020697   -1.1140240494   -0.1358499183
C        3.1223019321   -1.6781171888    0.6485532665
C        3.0053600660   -1.6947199977    2.0444542578
C        1.8737104834   -1.1466522753    2.6777359135
C        0.8627479756   -0.5838446945    1.8704087689
C        0.9821270715   -0.5671848155    0.4766447202
H        0.1928264910   -0.1297629099   -0.1284594343
H       -0.0290772769   -0.1558083363    2.3213993748
C        1.7438508674   -1.1595768666    4.1464720475
O        2.5897002815   -1.6921276373    4.8182492012
O        0.5891191364   -0.6919566598    4.6844649821
H        0.7563617458   -0.2017551547    5.4991357891
H        3.7976013817   -2.1390587777    2.6427141514
H        4.0004579392   -2.1065316007    0.1742255951
15   

H        2.1953604527   -1.0663992017   -1.2108955377
C        2.1066645432   -1.0919048752   -0.1282511045
C        3.1239635978   -1.6550202792    0.6478124629
C        3.0094439655   -1.6892382030    2.0435218550
C        1.8734309362   -1.1600176768    2.6850123298
C        0.8549389019   -0.5989632052    1.8860768125
C        0.9721562610   -0.5643120602    0.4924001023
H        0.1772346400   -0.1287171445   -0.1066538063
H       -0.0417704160   -0.1876475299    2.3427171961
C        1.7466811696   -1.1926938506    4.1535312613
O        2.5937540428   -1.7314971790    4.8159724646
O        0.5843044840   -0.7355723178    4.7051138892
H        0.7466948565   -0.0720224771    5.3842213722
H        3.8068011398   -2.1332938203    2.6352647122
H        4.0054381977   -2.0694193319    0.1671735450
15   

H        2.1905474532   -1.0213894579   -1.1987904013
C        2.1017206756   -1.0645476397   -0.1166910224
C        3.1207556058   -1.6369327369    0.6502437789
C        3.0057329967   -1.6948551037    2.0450559531
C        1.8682747881   -1.1791166156    2.6946407365
C        0.8474453774   -0.6093589021    1.9051303096
C        0.9649107854   -0.5516574929    0.5121771109
H        0.1680545851   -0.1106975839   -0.0803923792
H       -0.0525489003   -0.2119849587    2.3675034022
C        1.7415560525   -1.2388603941    4.1617148102
O        2.5707986420   -1.8107868799    4.8154003260
O        0.6010662935   -0.7318610651    4.7354519092
H        0.7746081666    0.0716806668    5.2340629708
H        3.8038326980   -2.1467420819    2.6299715080
H        4.0036890627   -2.0406523105    0.1631594345
15   

H        2.1933761601   -0.9585906160   -1.1807851995
C        2.1027719781   -1.0221964173   -0.0998084145
C        3.1220286641   -1.6064682932    0.6578005969
C        3.0042606932   -1.6921138893    2.0508728972
C        1.8645690430   -1.1913460693    2.7078768243
C        0.8429079832   -0.6101945059    1.9280131559
C        0.9629529296   -0.5253136708    0.5366063266
H        0.1652586359   -0.0772870939   -0.0495677957
H       -0.0614269685   -0.2288817116    2.3953440754
C        1.7335516212   -1.2860274488    4.1720040923
O        2.5470794022   -1.8862187993    4.8167186007
O        0.6300193536   -0.7166803774    4.7707449260
H        0.8012632659    0.1859191574    5.0515072455
H        3.8016584537   -2.1543689975    2.6287693278
H        4.0068313716   -1.9987530921    0.1647049126
15   

H        2.1960975509   -0.8972127366   -1.1598417811
C        2.1040380303   -0.9793073236   -0.0801963708
C        3.1227974666   -1.5758709346    0.6684074534
C        3.0027441327   -1.6868037035    2.0594079600
C        1.8620047122   -1.1980376144    2.7233572322
C        0.8401403538   -0.6051545320    1.9526601265
C        0.9623431889   -0.4955717331    0.5631036727
H        0.1643417920   -0.0402861914   -0.0171119918
H       -0.0679747037   -0.2380994358    2.4240059901
C        1.7266546409   -1.3254933139    4.1840171593
O        2.5229916889   -1.9593575847    4.8163591587
O        0.6772039887   -0.6878346228    4.8066287560
H        0.8181736138    0.2612559474    4.8588873728
H        3.7989617168   -2.1598051892    2.6303669931
H        4.0085889866   -1.9589616851    0.1697896836
15   

H        2.1842827571   -0.8585723203   -1.1414698116
C        2.0943902699   -0.9525372558   -0.0625705321
C        3.1143839417   -1.5582448971    0.6768465546
C        2.9970429932   -1.6853289823    2.0665809398
C        1.8585848427   -1.2025978663    2.7386678612
C        0.8345065369   -0.6014892110    1.9771893552
C        0.9539583772   -0.4762354133    0.5886179291
H        0.1545033023   -0.0157803366    0.0144335611
H       -0.0748371016   -0.2435736371    2.4530368587
C        1.7265393064   -1.3498761132    4.1973771368
O        2.5034087052   -2.0224237029    4.8141474954
O        0.7378277358   -0.6540267079    4.8415011394
H        0.8070926336    0.2927333846    4.6857291610
H        3.7938457151   -2.1659223786    2.6305011456
H        3.9988836733   -1.9363386614    0.1720615689
15   

H        2.1519450578   -0.8483878237   -1.1305822975
C        2.0684018371   -0.9471895198   -0.0515714335
C        3.0908364175   -1.5603860828    0.6780506974
C        2.9819741926   -1.6937072826    2.0677287935
C        1.8505824251   -1.2086846076    2.7499158960
C        0.8228016847   -0.6013049329    1.9982719086
C        0.9337149086   -0.4703482017    0.6093680788
H        0.1321167217   -0.0054474162    0.0417324780
H       -0.0838838348   -0.2448958339    2.4799960717
C        1.7320799397   -1.3605367496    4.2090372779
O        2.4827995999   -2.0780554326    4.8083043997
O        0.8064534336   -0.6146942322    4.8726871738
H        0.7703461006    0.2910990003    4.5467632775
H        3.7807967718   -2.1795568455    2.6243887096
H        3.9708248357   -1.9392093061    0.1658889478
15   

H        2.1034277272   -0.8647324766   -1.1265610802
C        2.0299443882   -0.9618847181   -0.0466427913
C        3.0549656321   -1.5824813382    0.6727593220
C        2.9596144828   -1.7129568202    2.0635117825
C        1.8403923771   -1.2166607288    2.7574640511
C        0.8086374017   -0.6030555308    2.0161181970
C        0.9059069117   -0.4755943070    0.6256806091
H        0.1022852876   -0.0056274564    0.0650846275
H       -0.0911835357   -0.2394320482    2.5047689727
C        1.7446312744   -1.3600023303    4.2189677666
O        2.4629322401   -2.1234549509    4.8019628397
O        0.8796504269   -0.5710367319    4.8998210819
H        0.7136785513    0.2641547569    4.4462994831
H        3.7609916134   -2.2031277704    2.6127857081
H        3.9269208392   -1.9684239067    0.1521628302
15   

H        2.0483715631   -0.9004103952   -1.1277967622
C        1.9860114186   -0.9912923310   -0.0466180311
C        3.0102238838   -1.6234078395    0.6635123286
C        2.9298570225   -1.7445982560    2.0558592000
C        1.8278834053   -1.2264035825    2.7613005353
C        0.7957476123   -0.6018672341    2.0292944596
C        0.8776482450   -0.4847291458    0.6367657834
H        0.0748300268   -0.0057047795    0.0827151017
H       -0.0926449325   -0.2202694424    2.5243671740
C        1.7595380070   -1.3521456080    4.2260588572
O        2.4386596347   -2.1607815522    4.7957903969
O        0.9540626887   -0.5217672158    4.9195987469
H        0.6435407285    0.2201966115    4.3848134531
H        3.7315662107   -2.2416884182    2.5984802820
H        3.8706037801   -2.0242028731    0.1348839515
15   

H        1.9917913426   -0.9392917916   -1.1330658926
C        1.9428054758   -1.0198663427   -0.0503772302
C        2.9616867696   -1.6703969148    0.6501048687
C        2.8991578934   -1.7770344308    2.0443351209
C        1.8214338685   -1.2257538954    2.7626950428
C        0.7944339562   -0.5812687182    2.0399399462
C        0.8580569333   -0.4798259131    0.6450023553
H        0.0601675885    0.0153258497    0.0980783881
H       -0.0754943848   -0.1674581860    2.5406505077
C        1.7842938436   -1.3319329438    4.2312348889
O        2.4463763271   -2.1623277464    4.7902588936
O        1.0071194014   -0.4880788124    4.9361972834
H        0.5258321485    0.1307977126    4.3713620098
H        3.6984680311   -2.2865870879    2.5789348418
H        3.8049744243   -2.0954900035    0.1129514158
