15   

H        2.1271731276   -1.0610748352   -1.2209014094
C        1.9701896606   -1.0475285338   -0.1458266677
C        3.0517428916   -1.2090815591    0.7250384962
C        2.8496089340   -1.1921315220    2.1114825651
C        1.5750277870   -1.0076546219    2.6408534493
C        0.4892325834   -0.8565611976    1.7591072259
C        0.6850930198   -0.8725800812    0.3736033633
H       -0.1620505223   -0.7512101010   -0.2955391636
H       -0.5139329969   -0.7261665710    2.1592565799
C        1.3363210858   -1.0078906867    4.1002309048
O        0.2532050539   -1.1124340541    4.6203452440
O        2.4619738227   -0.8943854674    4.8444933767
H        2.1477988710   -0.9106651733    5.7603514236
H        3.7101016943   -1.3264425351    2.7620969309
H        4.0522054290   -1.3500595772    0.3259772505
15   

H        2.1246498287   -1.0335569514   -1.2187924073
C        1.9683910619   -1.0309812460   -0.1435314120
C        3.0460756214   -1.2339518483    0.7240822986
C        2.8439259868   -1.2315912278    2.1105048385
C        1.5758537613   -1.0141836917    2.6412106212
C        0.4920515795   -0.8312660774    1.7648206936
C        0.6874151152   -0.8324159820    0.3789798982
H       -0.1568485384   -0.6835748028   -0.2882392875
H       -0.5072636252   -0.6894661932    2.1703974787
C        1.3412581693   -1.0533494998    4.1018494937
O        0.3073782575   -1.3862224383    4.6242210238
O        2.4261774859   -0.7149078064    4.8376133579
H        2.1290270802   -0.7915559874    5.7560141214
H        3.6941598693   -1.4007068772    2.7666499463
H        4.0421698989   -1.3970804533    0.3225634990
15   

H        2.1177453882   -1.0080954026   -1.2164917851
C        1.9639258507   -1.0165755706   -0.1409094811
C        3.0381744101   -1.2615939850    0.7207679171
C        2.8382729610   -1.2736887314    2.1073345668
C        1.5785464729   -1.0245832249    2.6418253198
C        0.4961200169   -0.8062761755    1.7737745272
C        0.6889194813   -0.7925996583    0.3874306100
H       -0.1526103930   -0.6144350084   -0.2760277105
H       -0.4980998912   -0.6504516967    2.1861056424
C        1.3535898644   -1.0994205047    4.1052576715
O        0.4186272776   -1.6454773707    4.6319184925
O        2.3541387369   -0.5472937875    4.8298452344
H        2.0880904233   -0.6790150245    5.7514243314
H        3.6787885475   -1.4750773276    2.7669380632
H        4.0284920646   -1.4467003610    0.3145363131
15   

H        2.1067609868   -0.9837242132   -1.2155332996
C        1.9581517051   -1.0062207354   -0.1394208140
C        3.0296496214   -1.2973250599    0.7117955061
C        2.8360243652   -1.3272288295    2.0988935466
C        1.5870257975   -1.0499551465    2.6422064415
C        0.5058421835   -0.7862423390    1.7866923005
C        0.6923848764   -0.7543515435    0.3996201346
H       -0.1466318438   -0.5407510078   -0.2565027668
H       -0.4808919822   -0.6098407400    2.2079199864
C        1.3771931461   -1.1498765936    4.1105319093
O        0.5893773061   -1.8830917488    4.6473898020
O        2.2370629885   -0.3838146850    4.8190321132
H        2.0115223128   -0.5556677819    5.7446685597
H        3.6699132654   -1.5622555417    2.7556344493
H        4.0120835596   -1.5040852728    0.2969636576
15   

H        2.0896333662   -0.9507915054   -1.2157596882
C        1.9514578933   -0.9933131475   -0.1388612161
C        3.0217382525   -1.3390449543    0.6934664724
C        2.8415350846   -1.3943120820    2.0815637010
C        1.6068433651   -1.0943036303    2.6431602318
C        0.5275841370   -0.7671076398    1.8080131028
C        0.7008689524   -0.7096717988    0.4199559076
H       -0.1361615254   -0.4497471621   -0.2218168038
H       -0.4463806042   -0.5603691518    2.2442921488
C        1.4183744819   -1.2028470139    4.1181755102
O        0.8236908824   -2.0837035743    4.6786892923
O        2.0538830039   -0.2230835686    4.7977141508
H        1.8715626221   -0.4127542371    5.7292517174
H        3.6732239419   -1.6688430561    2.7254206444
H        3.9926316320   -1.5674541021    0.2631019437
15   

H        2.0780868449   -0.9098248065   -1.2148586096
C        1.9525835031   -0.9734706730   -0.1374505070
C        3.0178275646   -1.3854871821    0.6707002811
C        2.8537545594   -1.4680159714    2.0594546257
C        1.6377601395   -1.1415041076    2.6452017903
C        0.5679591255   -0.7298469416    1.8353318072
C        0.7247766682   -0.6452632933    0.4467129278
H       -0.1065119003   -0.3263710611   -0.1756232423
H       -0.3858865730   -0.4777537747    2.2914383382
C        1.4730089987   -1.2405544486    4.1258747246
O        1.1012532053   -2.2147593928    4.7218263265
O        1.7928669571   -0.0917312579    4.7602210109
H        1.6470278597   -0.2803551544    5.6983165677
H        3.6824125374   -1.7907054509    2.6845548273
H        3.9726394071   -1.6427917031    0.2210765723
15   

H        2.0619298402   -0.8790482434   -1.2142881980
C        1.9514688286   -0.9557128622   -0.1360816843
C        3.0114371512   -1.4250705340    0.6471003839
C        2.8664447572   -1.5247666222    2.0368281587
C        1.6710777304   -1.1693990617    2.6487218174
C        0.6126025180   -0.6836213612    1.8642058094
C        0.7500734787   -0.5820547972    0.4747118072
H       -0.0749028894   -0.2118173112   -0.1272480529
H       -0.3175963230   -0.3865702337    2.3416231178
C        1.5383119488   -1.2544280516    4.1318157707
O        1.4097146879   -2.2666544531    4.7662480239
O        1.5122984636   -0.0369473750    4.7172102351
H        1.4076207898   -0.2213792332    5.6616663028
H        3.6920747114   -1.8895835526    2.6426973047
H        3.9478262766   -1.7126182197    0.1774791751
15   

H        2.0487278123   -0.8846202545   -1.2172486877
C        1.9501730385   -0.9588589463   -0.1377202716
C        3.0022848426   -1.4686807986    0.6303329419
C        2.8726607065   -1.5653425127    2.0217252364
C        1.6979208442   -1.1710126480    2.6518016138
C        0.6503151054   -0.6382453573    1.8810810024
C        0.7728982833   -0.5398078521    0.4900048653
H       -0.0447280311   -0.1354381257   -0.0998975318
H       -0.2602933406   -0.3018339901    2.3702935132
C        1.5964290045   -1.2427548451    4.1339544843
O        1.7085418184   -2.2410864406    4.7950790157
O        1.2701392307   -0.0543676395    4.6902010392
H        1.2143574309   -0.2363846249    5.6393816304
H        3.6927049037   -1.9612311887    2.6159925514
H        3.9210355091   -1.7898439014    0.1478195212
15   

H        2.0333477052   -0.9131398685   -1.2227799250
C        1.9445720037   -0.9746810767   -0.1416052907
C        2.9880039860   -1.5117231185    0.6193108750
C        2.8713850995   -1.5919213787    2.0127836059
C        1.7174240984   -1.1528007744    2.6543384806
C        0.6776821823   -0.5944723204    1.8881688509
C        0.7885125885   -0.5127330671    0.4950172046
H       -0.0224203200   -0.0880500890   -0.0898368978
H       -0.2191303002   -0.2253056714    2.3794638760
C        1.6441545613   -1.2154775829    4.1344176728
O        1.9849076384   -2.1537229375    4.8074671940
O        1.0718717853   -0.1194500344    4.6837189335
H        1.0709327503   -0.2970541873    5.6354852421
H        3.6854929202   -2.0098010632    2.6006344835
H        3.8902876841   -1.8671372306    0.1297714514
15   

H        2.0177211654   -0.9530389176   -1.2296521000
C        1.9381289205   -0.9963335360   -0.1468787692
C        2.9725887751   -1.5530640948    0.6115626516
C        2.8683765349   -1.6096800419    2.0070876944
C        1.7361895746   -1.1234446828    2.6558132027
C        0.7023967564   -0.5507024136    1.8890972855
C        0.8022457101   -0.4928427895    0.4939287217
H       -0.0027087004   -0.0551402454   -0.0896010629
H       -0.1835736351   -0.1515398804    2.3766153906
C        1.6838699788   -1.1792633719    4.1339537702
O        2.2303402313   -2.0124054923    4.8120087637
O        0.9059701357   -0.2185100882    4.6851730607
H        0.9569414780   -0.3829528871    5.6380315459
H        3.6777040595   -2.0441233524    2.5899184122
H        3.8587783965   -1.9425879837    0.1185776786
15   

H        1.9967622549   -0.9985490097   -1.2355066856
C        1.9271954864   -1.0218995658   -0.1514282981
C        2.9532645953   -1.5945606818    0.6058808559
C        2.8626774277   -1.6251127168    2.0031200482
C        1.7537231703   -1.0925346466    2.6572694761
C        0.7245633956   -0.5100199112    1.8889142416
C        0.8119450910   -0.4783035783    0.4920856315
H        0.0122837369   -0.0302808846   -0.0909041351
H       -0.1498630567   -0.0810761524    2.3718313414
C        1.7167859944   -1.1395533839    4.1348693982
O        2.4373567390   -1.8226228019    4.8195694351
O        0.7649297269   -0.3497088745    4.6851517796
H        0.8588266748   -0.4875783359    5.6390246027
H        3.6683853052   -2.0734524563    2.5805920103
H        3.8229864501   -2.0170558787    0.1107122788
15   

H        1.9716836752   -1.0475021060   -1.2388640033
C        1.9132132652   -1.0499016624   -0.1538816239
C        2.9316319280   -1.6363232557    0.6029275398
C        2.8559176633   -1.6392787990    2.0013721641
C        1.7711758701   -1.0614683951    2.6583320889
C        0.7462427921   -0.4710202516    1.8892632668
C        0.8193501648   -0.4666600805    0.4912754716
H        0.0247345690   -0.0093776999   -0.0914311634
H       -0.1134980501   -0.0118417544    2.3706635507
C        1.7452535820   -1.0947464362    4.1362315885
O        2.6010901807   -1.5895811598    4.8276185173
O        0.6531705736   -0.5093031976    4.6816360836
H        0.7779857232   -0.6089903226    5.6367401902
H        3.6566943460   -2.0997823408    2.5761517981
H        3.7841533313   -2.0910887399    0.1064277899
15   

H        1.9428082503   -1.0963257737   -1.2386207494
C        1.8962408385   -1.0779958042   -0.1532147309
C        2.9074102032   -1.6776607455    0.6032335719
C        2.8472829559   -1.6530115717    2.0022310415
C        1.7877701653   -1.0308317694    2.6592356365
C        0.7669195910   -0.4332572675    1.8913605431
C        0.8243410569   -0.4558360829    0.4928024737
H        0.0346414227    0.0102412101   -0.0896115795
H       -0.0752428265    0.0541585688    2.3761404426
C        1.7680236527   -1.0466950957    4.1378279895
O        2.7114770644   -1.3258307833    4.8353945750
O        0.5776520912   -0.6891141864    4.6743416086
H        0.7186139239   -0.7416866658    5.6309313264
H        3.6406253081   -2.1237621786    2.5789886551
H        3.7419410798   -2.1639323605    0.1060330600
15   

H        1.9153641094   -1.1385415983   -1.2355604853
C        1.8803414481   -1.1010624355   -0.1502143845
C        2.8824904602   -1.7163504068    0.6063617990
C        2.8371716160   -1.6662333475    2.0052864486
C        1.8045831785   -0.9994947031    2.6597614547
C        0.7894776375   -0.3928851910    1.8941242973
C        0.8314074315   -0.4399928090    0.4956123574
H        0.0476223424    0.0360752717   -0.0866953344
H       -0.0337932865    0.1199082517    2.3852617864
C        1.7840533419   -0.9976994261    4.1397371598
O        2.7616547916   -1.0494982360    4.8426783265
O        0.5419985745   -0.8781398526    4.6641637144
H        0.6825483711   -0.8802391441    5.6221930197
H        3.6205537089   -2.1476979818    2.5866193789
H        3.6978776834   -2.2341902490    0.1092897077
15   

H        1.8897881624   -1.1733113961   -1.2310666831
C        1.8653332495   -1.1182842154   -0.1461791298
C        2.8555593596   -1.7517523593    0.6116652652
C        2.8236111673   -1.6785019759    2.0100256110
C        1.8194261163   -0.9679417384    2.6602269800
C        0.8133162344   -0.3486610568    1.8959990850
C        0.8408644649   -0.4178536948    0.4980399700
H        0.0649310393    0.0702597667   -0.0847933683
H        0.0095154354    0.1890713716    2.3926635131
C        1.7934632355   -0.9448832003    4.1430370010
O        2.7502839752   -0.7666230362    4.8516483970
O        0.5468174139   -1.0710113392    4.6534111149
H        0.6708248662   -1.0221740360    5.6123898908
H        3.5954068210   -2.1730649707    2.5954336182
H        3.6506066334   -2.3015118808    0.1159352880
15   

H        1.8737384495   -1.2017562238   -1.2273500629
C        1.8548433911   -1.1316266704   -0.1432232953
C        2.8264982535   -1.7872614689    0.6201855944
C        2.8015836751   -1.6941567534    2.0176222523
C        1.8244835839   -0.9416422295    2.6591073548
C        0.8359082794   -0.3018934691    1.8917942023
C        0.8555563814   -0.3900063746    0.4947761470
H        0.0933591701    0.1148181327   -0.0919266158
H        0.0524914882    0.2650288228    2.3883488065
C        1.7910699962   -0.8900048866    4.1451899715
O        2.6770102737   -0.4859195492    4.8509845332
O        0.5974143198   -1.2735544327    4.6513670931
H        0.6959588989   -1.1758832312    5.6094562816
H        3.5577840938   -2.2057502014    2.6082042038
H        3.6011891464   -2.3695057498    0.1293563568
15   

H        1.8759931436   -1.2160241719   -1.2250214332
C        1.8528316666   -1.1344748527   -0.1417755526
C        2.7940651857   -1.8190168159    0.6345525797
C        2.7635605273   -1.7112254378    2.0308891714
C        1.8088804705   -0.9196584023    2.6566764989
C        0.8545991551   -0.2450490370    1.8781750290
C        0.8795031465   -0.3474888225    0.4821830906
H        0.1425621395    0.1822961070   -0.1146949187
H        0.0943198809    0.3599492237    2.3654009226
C        1.7699864762   -0.8345619914    4.1451889787
O        2.5399579867   -0.2183024690    4.8314923067
O        0.7111675659   -1.4888449064    4.6709636250
H        0.7857917115   -1.3483255666    5.6257700688
H        3.4961627103   -2.2446375406    2.6313883035
H        3.5494037658   -2.4346843657    0.1544802498
15   

H        1.9106466540   -1.2132795338   -1.2245241053
C        1.8684755429   -1.1259016473   -0.1423056422
C        2.7633789595   -1.8466281664    0.6560121877
C        2.7082077333   -1.7317931572    2.0510529156
C        1.7676188039   -0.9061614372    2.6526979286
C        0.8706340111   -0.1813077022    1.8528038186
C        0.9201932335   -0.2911092732    0.4579934259
H        0.2238369803    0.2723222004   -0.1565537183
H        0.1363161187    0.4686379549    2.3215826793
C        1.7235761227   -0.7864501195    4.1403386036
O        2.3327034541    0.0170083868    4.7929140153
O        0.9060196947   -1.6989718805    4.7090253223
H        0.9623962595   -1.5211177203    5.6587941758
H        3.4062956365   -2.2911159789    2.6686159243
H        3.5024428752   -2.4949347225    0.1939343907
15   

H        1.9514619652   -1.2012019881   -1.2237355152
C        1.8846863012   -1.1143250947   -0.1427154953
C        2.7255932445   -1.8757525440    0.6763716193
C        2.6387882206   -1.7617532588    2.0698602660
C        1.7112776663   -0.9050374246    2.6491887030
C        0.8813248017   -0.1260210661    1.8284328740
C        0.9626040727   -0.2353278361    0.4350646581
H        0.3135547913    0.3652769751   -0.1958568441
H        0.1751459469    0.5660284976    2.2801699069
C        1.6627576143   -0.7599503163    4.1322825295
O        2.0749834754    0.1840236460    4.7509227253
O        1.1553144630   -1.8515668748    4.7458418231
H        1.1932876775   -1.6419972647    5.6900963079
H        3.2972782247   -2.3501740067    2.7037193322
H        3.4482927381   -2.5539657973    0.2316801022
15   

H        1.9884326660   -1.1981722453   -1.2223636285
C        1.8991832781   -1.1130902940   -0.1428246056
C        2.6940529884   -1.9055306447    0.6924233782
C        2.5786730363   -1.7936296870    2.0840381168
C        1.6632396550   -0.9118325715    2.6466059170
C        0.8864727307   -0.0964223600    1.8086642917
C        0.9963932818   -0.2033946409    0.4171691213
H        0.3858298467    0.4242340401   -0.2257663604
H        0.1995307488    0.6232956065    2.2471974847
C        1.5962129775   -0.7529458054    4.1231748595
O        1.7812220763    0.2768979128    4.7161909590
O        1.3883499814   -1.9219453765    4.7700384694
H        1.3883601804   -1.6850309102    5.7086951943
H        3.2045959039   -2.4055551813    2.7287742041
H        3.4041912998   -2.6057748161    0.2618733034
15   

H        2.0149212344   -1.1944450092   -1.2224271535
C        1.9110576143   -1.1123896869   -0.1439611459
C        2.6681553560   -1.9321837338    0.6994086981
C        2.5343863698   -1.8244260447    2.0897928548
C        1.6372779206   -0.9181442789    2.6452156359
C        0.8985684557   -0.0769154806    1.7970060228
C        1.0272049582   -0.1795220755    0.4069582988
H        0.4454532542    0.4694411707   -0.2415043269
H        0.2252664401    0.6605116674    2.2278621889
C        1.5411089085   -0.7595789055    4.1160822823
O        1.4896697931    0.2955813614    4.6937461185
O        1.5887203355   -1.9344694663    4.7856600895
H        1.5333018577   -1.6844647913    5.7193981011
H        3.1353325272   -2.4599886713    2.7355671619
H        3.3639639106   -2.6510317845    0.2761765166
15   

H        2.0401900249   -1.1866239833   -1.2236677468
C        1.9256877003   -1.1083729198   -0.1459963542
C        2.6489146594   -1.9537308394    0.7011561687
C        2.5017305012   -1.8517560583    2.0907516065
C        1.6270662862   -0.9213713044    2.6441669162
C        0.9177629912   -0.0597453423    1.7893951209
C        1.0602872197   -0.1566561468    0.4005041665
H        0.5019661527    0.5104018274   -0.2502089052
H        0.2537796226    0.6897797261    2.2143290776
C        1.4956755607   -0.7734985858    4.1107632085
O        1.2113619973    0.2520745689    4.6764041840
O        1.7686385067   -1.9065735080    4.7996562597
H        1.6501559179   -1.6594206696    5.7283707582
H        3.0806738748   -2.5125344334    2.7312363217
H        3.3291000314   -2.6893842233    0.2814014105
15   

H        2.0648542969   -1.1740149576   -1.2244986707
C        1.9406965011   -1.1009786125   -0.1475290588
C        2.6308885902   -1.9717997673    0.7007446733
C        2.4713793375   -1.8776009104    2.0896492677
C        1.6211153547   -0.9241296484    2.6435138879
C        0.9377947322   -0.0436270469    1.7850006971
C        1.0931442600   -0.1330639660    0.3971583315
H        0.5565605785    0.5511370597   -0.2540570559
H        0.2815442127    0.7154852819    2.2051758657
C        1.4546566499   -0.7934309211    4.1070616868
O        0.9511186087    0.1524007142    4.6606327138
O        1.9392712343   -1.8416860492    4.8143198161
H        1.7607420821   -1.6121339301    5.7380081077
H        3.0265240129   -2.5652977265    2.7226372377
H        3.2946140217   -2.7230498535    0.2822451784
15   

H        2.0869134245   -1.1573567786   -1.2238971877
C        1.9531978578   -1.0915837276   -0.1476030338
C        2.6109762880   -1.9883131056    0.6991181665
C        2.4389648236   -1.9040534453    2.0872114912
C        1.6135344168   -0.9298471498    2.6431869150
C        0.9544077609   -0.0303193478    1.7846256651
C        1.1225171994   -0.1098426412    0.3977283232
H        0.6071071429    0.5915444235   -0.2523109616
H        0.3061436778    0.7364525405    2.2033544929
C        1.4158270656   -0.8205743991    4.1043664813
O        0.7150869652    0.0001981621    4.6434598662
O        2.0995468522   -1.7382239328    4.8286323104
H        1.8698879083   -1.5386220456    5.7479960416
H        2.9660070453   -2.6178585368    2.7151962425
H        3.2580458977   -2.7535749717    0.2799109677
