15   

H        1.8844930934   -1.1974249922   -1.1372582923
C        1.8989334059   -1.1491170372   -0.0516462208
C        2.9606382136   -1.7132823400    0.6606506651
C        2.9827129671   -1.6488120745    2.0589110627
C        1.9377024144   -1.0273801640    2.7676381868
C        0.8787661732   -0.4514171480    2.0340827989
C        0.8609403130   -0.5150191148    0.6357974229
H        0.0425729219   -0.0641765970    0.0808474796
H        0.0688486658    0.0724031361    2.5336838660
C        1.9680883683   -0.9741836753    4.2380957310
O        2.9986688411   -1.1458666493    4.8281181973
O        0.8176975165   -0.7689074310    4.9117198680
H        0.0392111191   -0.8750488027    4.3499162352
H        3.8160680850   -2.0885478501    2.6033608675
H        3.7727412338   -2.2015717524    0.1292371624
15   

H        1.8836818246   -1.2630207316   -1.1392447421
C        1.8975207701   -1.2019098131   -0.0542858475
C        2.9496708243   -1.7733351450    0.6666869324
C        2.9716414163   -1.6911766581    2.0642117670
C        1.9362468176   -1.0429535720    2.7629978901
C        0.8870049570   -0.4610458128    2.0206380283
C        0.8685976673   -0.5432373505    0.6235232108
H        0.0576340019   -0.0865807355    0.0624999373
H        0.0863556071    0.0823108558    2.5150099809
C        1.9669687079   -0.9570535557    4.2318023284
O        2.9799005709   -1.1865343014    4.8318113293
O        0.8201727735   -0.6788308861    4.8963827097
H        0.0378198781   -0.9607343381    4.4072733019
H        3.7987917665   -2.1346337456    2.6149774152
H        3.7551798129   -2.2797027238    0.1422583082
15   

H        1.8958530271   -1.3125412470   -1.1453653516
C        1.9057442295   -1.2420031626   -0.0609612660
C        2.9499849142   -1.8156752398    0.6699237801
C        2.9671826264   -1.7205268699    2.0668783188
C        1.9351414142   -1.0554449284    2.7547955154
C        0.8935583210   -0.4730847113    2.0023507592
C        0.8794331394   -0.5687461916    0.6062296005
H        0.0740201180   -0.1107629257    0.0383706536
H        0.0955315369    0.0802509378    2.4903439177
C        1.9609905227   -0.9456727612    4.2222483695
O        2.9519553600   -1.2277853219    4.8353878664
O        0.8187513595   -0.5924102168    4.8733903761
H        0.0425735843   -1.0278828458    4.5047395272
H        3.7891194814   -2.1644817797    2.6248759977
H        3.7535348322   -2.3330323706    0.1533529567
15   

H        1.9219658453   -1.3339345222   -1.1566085391
C        1.9243911385   -1.2605908984   -0.0723813787
C        2.9607525709   -1.8366376465    0.6679778558
C        2.9681635622   -1.7376329192    2.0649115961
C        1.9345535803   -1.0648819808    2.7430513607
C        0.9004931115   -0.4818613958    1.9810001391
C        0.8957259818   -0.5817305076    0.5852596959
H        0.0953779529   -0.1228915416    0.0110255790
H        0.0999277638    0.0731944681    2.4631296038
C        1.9493342915   -0.9460609383    4.2102323805
O        2.9158055587   -1.2749738308    4.8379288803
O        0.8161862423   -0.5120029357    4.8460307092
H        0.0570692655   -1.0667189309    4.6424410287
H        3.7843982924   -2.1830107141    2.6299515162
H        3.7658995973   -2.3585444831    0.1586114972
15   

H        1.9614508792   -1.3224731935   -1.1733817564
C        1.9526618432   -1.2536502416   -0.0889303524
C        2.9803770536   -1.8339803047    0.6601926750
C        2.9726477951   -1.7413398257    2.0576759067
C        1.9329439672   -1.0694614382    2.7274536562
C        0.9072777031   -0.4834715676    1.9565352865
C        0.9172568450   -0.5772800462    0.5605018451
H        0.1222246511   -0.1166156655   -0.0195442910
H        0.0997671638    0.0659124515    2.4336866752
C        1.9291469593   -0.9584922434    4.1957048625
O        2.8728577852   -1.3252648400    4.8365564315
O        0.8133844471   -0.4410311361    4.8144917730
H        0.0849205742   -1.0676986832    4.8165559905
H        3.7819544333   -2.1906170087    2.6293924915
H        3.7902673668   -2.3546307290    0.1571960064
15   

H        2.0124462767   -1.2864956028   -1.1912251776
C        1.9887683791   -1.2288081141   -0.1063854924
C        3.0061087673   -1.8165512545    0.6511142831
C        2.9781662248   -1.7394028100    2.0493711598
C        1.9290700399   -1.0744470523    2.7116023647
C        0.9136835946   -0.4819256532    1.9320997737
C        0.9434426057   -0.5606733307    0.5354818373
H        0.1548762424   -0.0961055753   -0.0501665406
H        0.0962508727    0.0568808307    2.4044457427
C        1.8997871122   -0.9847514010    4.1816005266
O        2.8238530391   -1.3846174627    4.8327035659
O        0.8135777641   -0.3840208727    4.7813433930
H        0.1343895329   -1.0226726858    5.0130015120
H        3.7788260841   -2.1957444394    2.6274571322
H        3.8230900165   -2.3317502382    0.1541050253
15   

H        2.0644930879   -1.2498099091   -1.2060698291
C        2.0244511994   -1.2045565446   -0.1211547830
C        3.0313837426   -1.7988774158    0.6450798556
C        2.9814282057   -1.7388805967    2.0436472728
C        1.9210620119   -1.0834276621    2.6976826666
C        0.9160000791   -0.4850916093    1.9090845105
C        0.9673966168   -0.5471250331    0.5123180680
H        0.1854160083   -0.0792041999   -0.0793916982
H        0.0874352195    0.0417336295    2.3755823303
C        1.8644648008   -1.0160943889    4.1688027370
O        2.7728100942   -1.4446641856    4.8270544181
O        0.8118864082   -0.3497796604    4.7476219735
H        0.2118289264   -0.9483311713    5.2015783603
H        3.7735169211   -2.2016628096    2.6282149199
H        3.8568762990   -2.3066975643    0.1546791090
15   

H        2.1054355868   -1.2293312372   -1.2160888359
C        2.0505254559   -1.1936132315   -0.1314941791
C        3.0484375265   -1.7918680321    0.6434469185
C        2.9786858619   -1.7449612896    2.0417403633
C        1.9079236505   -1.0974911626    2.6870002674
C        0.9117328659   -0.4960156095    1.8893559473
C        0.9825024939   -0.5455331801    0.4929981101
H        0.2062730680   -0.0760593582   -0.1049743699
H        0.0732982134    0.0209070365    2.3493634920
C        1.8283881370   -1.0446122746    4.1582436765
O        2.7179718929   -1.5063816611    4.8231421996
O        0.8069430448   -0.3321011349    4.7179690519
H        0.3143682362   -0.8555188143    5.3592646619
H        3.7635644996   -2.2116348401    2.6327605412
H        3.8819977538   -2.2930992107    0.1600397483
15   

H        2.1394803492   -1.2160557985   -1.2221953926
C        2.0722136999   -1.1858959261   -0.1381440045
C        3.0670373667   -1.7782252813    0.6453539485
C        2.9810971449   -1.7386591788    2.0430445671
C        1.8969619914   -1.1044897117    2.6790748896
C        0.9035422387   -0.5098817915    1.8727670413
C        0.9906755670   -0.5516452217    0.4771413572
H        0.2160705376   -0.0875852868   -0.1271100332
H        0.0537384366   -0.0056976734    2.3261893156
C        1.7990648920   -1.0595077510    4.1496555281
O        2.6824298442   -1.5240885205    4.8235997111
O        0.7732368745   -0.3583201056    4.6950982431
H        0.4261107457   -0.8002211738    5.4800723659
H        3.7633027721   -2.2011913903    2.6407205261
H        3.9104976825   -2.2695126160    0.1690188588
15   

H        2.1597397605   -1.2033912201   -1.2262397855
C        2.0832475305   -1.1788181218   -0.1426680332
C        3.0754968601   -1.7680996720    0.6464287122
C        2.9774319668   -1.7359686295    2.0435413508
C        1.8837075546   -1.1121706328    2.6732720921
C        0.8925870073   -0.5213381943    1.8614179805
C        0.9918644039   -0.5555242877    0.4664149211
H        0.2186239223   -0.0946697461   -0.1420061818
H        0.0346018339   -0.0271846666    2.3106039491
C        1.7732870249   -1.0739648113    4.1431193128
O        2.6438235577   -1.5544947917    4.8245015410
O        0.7398915337   -0.3917709077    4.6809002893
H        0.5372040601   -0.7272520831    5.5655056809
H        3.7573380223   -2.1965351650    2.6456595496
H        3.9261274901   -2.2515509909    0.1748755411
15   

H        2.1789390234   -1.1891680555   -1.2286858966
C        2.0951924861   -1.1693639772   -0.1455581409
C        3.0879499045   -1.7519853289    0.6479098982
C        2.9803039154   -1.7262486709    2.0444748416
C        1.8762474287   -1.1158372698    2.6690325936
C        0.8843661747   -0.5322735630    1.8529575418
C        0.9934286690   -0.5596144065    0.4585594856
H        0.2192987999   -0.1046399408   -0.1531420877
H        0.0177606176   -0.0501274126    2.2987512629
C        1.7556122556   -1.0841983111    4.1380086188
O        2.6168413565   -1.5725990153    4.8267423208
O        0.6983528723   -0.4453050078    4.6712337923
H        0.6316876847   -0.6531752277    5.6154516743
H        3.7600839718   -2.1822108814    2.6502156236
H        3.9460912906   -2.2257239157    0.1801386264
15   

H        2.1947093580   -1.1718836253   -1.2287385099
C        2.1059432226   -1.1574054967   -0.1459279990
C        3.1015683027   -1.7322140070    0.6496835022
C        2.9872630428   -1.7136296041    2.0458506727
C        1.8733528744   -1.1187092062    2.6677265031
C        0.8783352433   -0.5435165661    1.8495569576
C        0.9943545876   -0.5631266554    0.4556078990
H        0.2175711850   -0.1149024519   -0.1577146917
H        0.0034070218   -0.0748170037    2.2934742920
C        1.7453914501   -1.0948628721    4.1361247707
O        2.6008503096   -1.5892390423    4.8282279659
O        0.6573532767   -0.5109993448    4.6661296362
H        0.6999540803   -0.5653297355    5.6333404788
H        3.7687563260   -2.1642673976    2.6533532410
H        3.9667852704   -2.1948490307    0.1838447064
15   

H        2.2009584873   -1.1492604251   -1.2274150055
C        2.1103673838   -1.1418600463   -0.1446823925
C        3.1111874990   -1.7098696119    0.6492512623
C        2.9943887489   -1.7007195966    2.0452877845
C        1.8725091669   -1.1226077196    2.6688165511
C        0.8719690355   -0.5547361330    1.8522414151
C        0.9908194714   -0.5643393856    0.4584083981
H        0.2096549690   -0.1221135605   -0.1536994151
H       -0.0099810261   -0.1003975952    2.2971489850
C        1.7418442730   -1.1091455964    4.1372136933
O        2.5956126918   -1.6110677238    4.8255151724
O        0.6233657383   -0.5811850372    4.6669061589
H        0.7381070498   -0.4603452269    5.6215966941
H        3.7795627255   -2.1469066727    2.6513400004
H        3.9821068033   -2.1604516499    0.1822178128
15   

H        2.2026768394   -1.1255772978   -1.2237601634
C        2.1119141519   -1.1268655579   -0.1410122136
C        3.1182224228   -1.6906678621    0.6488964913
C        3.0011175624   -1.6930416389    2.0449099859
C        1.8732845718   -1.1310574716    2.6726714041
C        0.8668804222   -0.5679236747    1.8599346108
C        0.9863119098   -0.5655859242    0.4660949823
H        0.2005545480   -0.1274158801   -0.1430489840
H       -0.0207195917   -0.1274400998    2.3074105954
C        1.7424952170   -1.1297652323    4.1413428617
O        2.5948125588   -1.6433128635    4.8216728059
O        0.5999815756   -0.6453155250    4.6728259354
H        0.7516274357   -0.3386777537    5.5778857632
H        3.7903573544   -2.1366924564    2.6475672790
H        3.9934539517   -2.1295357710    0.1787637693
15   

H        2.2024707673   -1.1019153397   -1.2185594054
C        2.1118911674   -1.1140002602   -0.1358539406
C        3.1222893026   -1.6781018732    0.6485453651
C        3.0053478157   -1.6947124566    2.0444461788
C        1.8737008478   -1.1466436397    2.6777312968
C        0.8627401428   -0.5838271660    1.8704086123
C        0.9821185576   -0.5671600058    0.4766444983
H        0.1928192011   -0.1297321052   -0.1284568928
H       -0.0290832182   -0.1557909515    2.3214031510
C        1.7438414781   -1.1595802722    4.1464666813
O        2.5896860048   -1.6921495693    4.8182448066
O        0.5891282398   -0.6919400859    4.6844710685
H        0.7563898927   -0.2017431636    5.4991409894
H        3.7975871980   -2.1390584929    2.6427033022
H        4.0004433912   -2.1065172109    0.1742149339
15   

H        2.1953597300   -1.0663651762   -1.2108977670
C        2.1066621980   -1.0918775721   -0.1282536267
C        3.1239566931   -1.6550048802    0.6478073018
C        3.0094344769   -1.6892325200    2.0435161577
C        1.8734239772   -1.1600091600    2.6850084604
C        0.8549367093   -0.5989421335    1.8860761171
C        0.9721562422   -0.5642820195    0.4923997507
H        0.1772378933   -0.1286786400   -0.1066523284
H       -0.0417709713   -0.1876255152    2.3427189510
C        1.7466703787   -1.1927006338    4.1535260743
O        2.5937320746   -1.7315294789    4.8159687824
O        0.5843146081   -0.7355471359    4.7051185344
H        0.7467312763   -0.0720023406    5.3842247046
H        3.8067873212   -2.1332983809    2.6352572150
H        4.0054293742   -2.0694062062    0.1671667949
15   

H        2.1905634108   -1.0213513374   -1.1987901305
C        2.1017306001   -1.0645180735   -0.1166915913
C        3.1207535331   -1.6369249377    0.6502430204
C        3.0057222061   -1.6948601237    2.0450539169
C        1.8682682129   -1.1791110691    2.6946371820
C        0.8474513537   -0.6093303784    1.9051275581
C        0.9649245649   -0.5516178326    0.5121754815
H        0.1680770335   -0.1106422681   -0.0803940126
H       -0.0525401847   -0.2119500498    2.3675006749
C        1.7415377547   -1.2388741136    4.1617086621
O        2.5707483659   -1.8108536126    4.8153960276
O        0.6010843426   -0.7318112742    4.7354542568
H        0.7746778590    0.0717176422    5.2340679807
H        3.8038113358   -2.1467654935    2.6299697196
H        4.0036838534   -2.0406522922    0.1631594250
15   

H        2.1933971100   -0.9585489080   -1.1807825163
C        2.1027872166   -1.0221624419   -0.0998066655
C        3.1220360089   -1.6064477402    0.6578027137
C        3.0042599843   -1.6921046489    2.0508736251
C        1.8645685299   -1.1913340950    2.7078754280
C        0.8429157739   -0.6101682747    1.9280118440
C        0.9629683537   -0.5252768582    0.5366063314
H        0.1652797382   -0.0772407651   -0.0495682472
H       -0.0614194179   -0.2288548654    2.3953419294
C        1.7335388424   -1.2860344471    4.1719997394
O        2.5470548902   -1.8862473052    4.8167177345
O        0.6300298214   -0.7166576198    4.7707461311
H        0.8013009899    0.1859379278    5.0515046476
H        3.8016505281   -2.1543716903    2.6287705024
H        4.0068383063   -1.9987350416    0.1647082722
15   

H        2.1961250066   -0.8971750084   -1.1598372472
C        2.1040583770   -0.9792767240   -0.0801929873
C        3.1228084041   -1.5758543853    0.6684125720
C        3.0027451428   -1.6867977559    2.0594113961
C        1.8620055047   -1.1980275312    2.7233568906
C        0.8401510920   -0.6051294370    1.9526584459
C        0.9623633870   -0.4955368381    0.5631036408
H        0.1643688091   -0.0402412378   -0.0171135170
H       -0.0679644360   -0.2380724592    2.4240020853
C        1.7266404034   -1.3255009760    4.1840133022
O        2.5229630600   -1.9593881536    4.8163580767
O        0.6772146513   -0.6878127990    4.8066287795
H        0.8182109921    0.2612737249    4.8588856084
H        3.7989543184   -2.1598116611    2.6303718809
H        4.0085997792   -1.9589486846    0.1697972698
15   

H        2.1842975173   -0.8585335769   -1.1414651846
C        2.0944007713   -0.9525051177   -0.0625668376
C        3.1143880580   -1.5582244190    0.6768495089
C        2.9970410378   -1.6853183613    2.0665824510
C        1.8585833912   -1.2025850278    2.7386686673
C        0.8345119361   -0.6014637874    1.9771911005
C        0.9539695248   -0.4762007265    0.5886209887
H        0.1545189967   -0.0157373165    0.0144369720
H       -0.0748316671   -0.2435475571    2.4530382811
C        1.7265273604   -1.3498802070    4.1973750642
O        2.5033872645   -2.0224477502    4.8141403649
O        0.7378355067   -0.6540096401    4.8415042669
H        0.8071218129    0.2927487769    4.6857321843
H        3.7938380150   -2.1659223143    2.6305017975
H        3.9988870615   -1.9363204486    0.1720649315
15   

H        2.1519762715   -0.8483744618   -1.1305787307
C        2.0684259646   -0.9471789926   -0.0515686769
C        3.0908527357   -1.5603833635    0.6780580112
C        2.9819809359   -1.6937088959    2.0677350295
C        1.8505874500   -1.2086822435    2.7499161285
C        0.8228148170   -0.6012944309    1.9982676958
C        0.9337373548   -0.4703337912    0.6093650881
H        0.1321448608   -0.0054274316    0.0417259893
H       -0.0838722259   -0.2448831177    2.4799874941
C        1.7320711998   -1.3605416134    4.2090352845
O        2.4827789562   -2.0780719343    4.8083070248
O        0.8064597221   -0.6146808271    4.8726823357
H        0.7703691066    0.2911116053    4.5467541279
H        3.7807967519   -2.1795653014    2.6243986707
H        3.9708422191   -1.9392097178    0.1659004334
15   

H        2.1034543628   -0.8647290165   -1.1265578580
C        2.0299644590   -0.9618828850   -0.0466401631
C        3.0549782938   -1.5824863790    0.6727667666
C        2.9596183988   -1.7129642754    2.0635184997
C        1.8403950485   -1.2166631693    2.7574648391
C        0.8086476121   -0.6030510912    2.0161142506
C        0.9059256127   -0.4755878416    0.6256775487
H        0.1023094043   -0.0056160639    0.0650779063
H       -0.0911744230   -0.2394244955    2.5047608458
C        1.7446223341   -1.3600076061    4.2189671693
O        2.4629092781   -2.1234719283    4.8019672369
O        0.8796570551   -0.5710231832    4.8998162704
H        0.7137027303    0.2641688277    4.4462888539
H        3.7609892824   -2.2031408792    2.6127964780
H        3.9269343594   -1.9684325740    0.1521744152
15   

H        2.0483888139   -0.9004124417   -1.1277954928
C        1.9860239782   -0.9912948861   -0.0466170760
C        3.0102313892   -1.6234143407    0.6635172034
C        2.9298583818   -1.7446054353    2.0558637326
C        1.8278837378   -1.2264071062    2.7613005094
C        0.7957529667   -0.6018670200    2.0292905495
C        0.8776596064   -0.4847284553    0.6367623523
H        0.0748450969   -0.0057012653    0.0827087189
H       -0.0926404723   -0.2202669426    2.5243600141
C        1.7595309640   -1.3521489483    4.2260582469
O        2.4386431647   -2.1607922615    4.7957947108
O        0.9540667574   -0.5217591351    4.9195930511
H        0.6435555903    0.2202057428    4.3848023805
H        3.7315634094   -2.2416986641    2.5984881469
H        3.8706120798   -2.0242118954    0.1348920420
15   

H        1.9917976098   -0.9392950209   -1.1330649514
C        1.9428089680   -1.0198699638   -0.0503764435
C        2.9616871735   -1.6704030545    0.6501078960
C        2.8991547473   -1.7770409061    2.0443380004
C        1.8214303921   -1.2257578723    2.7626953264
C        0.7944333644   -0.5812706042    2.0399380408
C        0.8580598086   -0.4798275710    0.6450006650
H        0.0601727091    0.0153259276    0.0980749896
H       -0.0754954143   -0.1674587801    2.5406468738
C        1.7842871622   -1.3319355372    4.2312349782
O        2.4463606446   -2.1623385220    4.7902618717
O        1.0071228433   -0.4880721497    4.9361936299
H        0.5258446077    0.1308077647    4.3713537733
H        3.6984624332   -2.2865953041    2.5789397304
H        3.8049752097   -2.0954976973    0.1129562692
