15   

H        2.1271731186   -1.0610749337   -1.2209014103
C        1.9701896517   -1.0475286130   -0.1458266686
C        3.0517428871   -1.2090816007    0.7250384965
C        2.8496089340   -1.1921315220    2.1114825651
C        1.5750277870   -1.0076546219    2.6408534493
C        0.4892325758   -0.8565612521    1.7591072253
C        0.6850930114   -0.8725801707    0.3736033634
H       -0.1620505372   -0.7512102366   -0.2955391632
H       -0.5139330116   -0.7261666642    2.1592565727
C        1.3363210858   -1.0078906867    4.1002309048
O        0.2532050539   -1.1124340541    4.6203452440
O        2.4619738146   -0.8943853921    4.8444933746
H        2.1477988757   -0.9106652937    5.7603514211
H        3.7101016962   -1.3264425084    2.7620969339
H        4.0522054238   -1.3500596177    0.3259772512
15   

H        2.1246498213   -1.0335573620   -1.2187924177
C        1.9683910553   -1.0309815340   -0.1435314237
C        3.0460756218   -1.2339520072    0.7240823011
C        2.8439259868   -1.2315912278    2.1105048385
C        1.5758537613   -1.0141836917    2.6412106212
C        0.4920515709   -0.8312662168    1.7648206724
C        0.6874151050   -0.8324162538    0.3789798739
H       -0.1568485551   -0.6835751964   -0.2882393302
H       -0.5072636442   -0.6894663669    2.1703974417
C        1.3412581693   -1.0533494998    4.1018494937
O        0.3073782575   -1.3862224383    4.6242210238
O        2.4261774389   -0.7149076475    4.8376133511
H        2.1290271590   -0.7915562472    5.7560141204
H        3.6941598792   -1.4007067897    2.7666499559
H        4.0421699028   -1.3970806307    0.3225635154
15   

H        2.1177454005   -1.0080954942   -1.2164917967
C        1.9639258563   -1.0165756415   -0.1409094918
C        3.0381744135   -1.2615940287    0.7207679149
C        2.8382729610   -1.2736887314    2.1073345668
C        1.5785464729   -1.0245832249    2.6418253198
C        0.4961200167   -0.8062762054    1.7737745149
C        0.6889194857   -0.7925997209    0.3874305952
H       -0.1526103855   -0.6144350934   -0.2760277354
H       -0.4980998995   -0.6504517429    2.1861056200
C        1.3535898644   -1.0994205047    4.1052576715
O        0.4186272776   -1.6454773707    4.6319184925
O        2.3541386538   -0.5472936305    4.8298452272
H        2.0880906916   -0.6790155076    5.7514243342
H        3.6787885428   -1.4750773094    2.7669380742
H        4.0284920647   -1.4467004233    0.3145363118
15   

H        2.1067609828   -0.9837243146   -1.2155333008
C        1.9581517044   -1.0062208098   -0.1394208155
C        3.0296496216   -1.2973251116    0.7117955077
C        2.8360243652   -1.3272288295    2.0988935466
C        1.5870257975   -1.0499551465    2.6422064415
C        0.5058421804   -0.7862423641    1.7866922945
C        0.6923848772   -0.7543516019    0.3996201272
H       -0.1466318395   -0.5407510968   -0.2565027886
H       -0.4808919894   -0.6098407695    2.2079199755
C        1.3771931461   -1.1498765936    4.1105319093
O        0.5893773061   -1.8830917488    4.6473898020
O        2.2370627831   -0.3838144507    4.8190321063
H        2.0115225991   -0.5556681125    5.7446685671
H        3.6699132721   -1.5622555132    2.7556344499
H        4.0120835605   -1.5040853325    0.2969636638
15   

H        2.0896334182   -0.9507914163   -1.2157596833
C        1.9514579337   -0.9933130746   -0.1388612131
C        3.0217382773   -1.3390449178    0.6934664783
C        2.8415350846   -1.3943120820    2.0815637010
C        1.6068433651   -1.0943036303    2.6431602318
C        0.5275841596   -0.7671075668    1.8080130998
C        0.7008689957   -0.7096717024    0.4199559056
H       -0.1361614673   -0.4497470306   -0.2218168102
H       -0.4463805761   -0.5603690344    2.2442921360
C        1.4183744819   -1.2028470139    4.1181755102
O        0.8236908824   -2.0837035743    4.6786892923
O        2.0538827490   -0.2230833921    4.7977141368
H        1.8715628335   -0.4127543707    5.7292517311
H        3.6732239328   -1.6688430863    2.7254206427
H        3.9926316657   -1.5674540527    0.2631019611
15   

H        2.0780868289   -0.9098248555   -1.2148586110
C        1.9525834930   -0.9734707134   -0.1374505109
C        3.0178275664   -1.3854871924    0.6707002812
C        2.8537545594   -1.4680159714    2.0594546257
C        1.6377601395   -1.1415041076    2.6452017903
C        0.5679591211   -0.7298469692    1.8353317991
C        0.7247766542   -0.6452633485    0.4467129199
H       -0.1065119292   -0.3263711452   -0.1756232514
H       -0.3858865759   -0.4777538049    2.2914383262
C        1.4730089987   -1.2405544486    4.1258747246
O        1.1012532053   -2.2147593928    4.7218263265
O        1.7928669227   -0.0917312465    4.7602210050
H        1.6470278035   -0.2803551384    5.6983165597
H        3.6824125452   -1.7907054291    2.6845548282
H        3.9726394154   -1.6427916932    0.2210765734
15   

H        2.0619298863   -0.8790482207   -1.2142881979
C        1.9514688550   -0.9557128524   -0.1360816875
C        3.0114371705   -1.4250705240    0.6471003879
C        2.8664447572   -1.5247666222    2.0368281587
C        1.6710777304   -1.1693990617    2.6487218174
C        0.6126025245   -0.6836213602    1.8642057978
C        0.7500734968   -0.5820547947    0.4747117950
H       -0.0749028694   -0.2118173083   -0.1272480685
H       -0.3175963225   -0.3865702279    2.3416230882
C        1.5383119488   -1.2544280516    4.1318157707
O        1.4097146879   -2.2666544531    4.7662480239
O        1.5122986828   -0.0369473821    4.7172102621
H        1.4076204562   -0.2213792215    5.6616662732
H        3.6920747053   -1.8895835539    2.6426973126
H        3.9478263101   -1.7126181876    0.1774791912
15   

H        2.0487278478   -0.8846201644   -1.2172486785
C        1.9501730636   -0.9588588838   -0.1377202651
C        3.0022848548   -1.4686807637    0.6303329447
C        2.8726607065   -1.5653425127    2.0217252364
C        1.6979208442   -1.1710126480    2.6518016138
C        0.6503151232   -0.6382453152    1.8810810074
C        0.7728983106   -0.5398077884    0.4900048742
H       -0.0447279900   -0.1354380343   -0.0998975214
H       -0.2602933108   -0.3018339115    2.3702935156
C        1.5964290045   -1.2427548451    4.1339544843
O        1.7085418184   -2.2410864406    4.7950790157
O        1.2701394629   -0.0543675898    4.6902010644
H        1.2143568882   -0.2363847581    5.6393815749
H        3.6927048958   -1.9612312097    2.6159925486
H        3.9210355247   -1.7898438498    0.1478195206
15   

H        2.0333478443   -0.9131396151   -1.2227799045
C        1.9445721013   -0.9746808952   -0.1416052770
C        2.9880040293   -1.5117230481    0.6193108823
C        2.8713850995   -1.5919213787    2.0127836059
C        1.7174240984   -1.1528007744    2.6543384806
C        0.6776822421   -0.5944721994    1.8881688582
C        0.7885126988   -0.5127328507    0.4950172195
H       -0.0224201592   -0.0880497678   -0.0898368772
H       -0.2191302228   -0.2253055105    2.3794638862
C        1.6441545613   -1.2154775829    4.1344176728
O        1.9849076384   -2.1537229375    4.8074671940
O        1.0718719720   -0.1194499494    4.6837189560
H        1.0709322673   -0.2970544317    5.6354852030
H        3.6854928908   -2.0098011225    2.6006344823
H        3.8902877269   -1.8671371696    0.1297714612
15   

H        2.0177212348   -0.9530387937   -1.2296520887
C        1.9381289738   -0.9963334426   -0.1468787609
C        2.9725888076   -1.5530640454    0.6115626561
C        2.8683765349   -1.6096800419    2.0070876944
C        1.7361895746   -1.1234446828    2.6558132027
C        0.7023967941   -0.5507023430    1.8890972876
C        0.8022457660   -0.4928426816    0.4939287243
H       -0.0027086176   -0.0551400866   -0.0896010621
H       -0.1835735730   -0.1515397678    2.3766153995
C        1.6838699788   -1.1792633719    4.1339537702
O        2.2303402313   -2.0124054923    4.8120087637
O        0.9059703033   -0.2185099624    4.6851730739
H        0.9569412792   -0.3829530488    5.6380315281
H        3.6777040448   -2.0441233816    2.5899184110
H        3.8587784354   -1.9425879292    0.1185776869
15   

H        1.9967624026   -0.9985487900   -1.2355066764
C        1.9271955840   -1.0218994123   -0.1514282943
C        2.9532646399   -1.5945606165    0.6058808626
C        2.8626774277   -1.6251127168    2.0031200482
C        1.7537231703   -1.0925346466    2.6572694761
C        0.7245634332   -0.5100198512    1.8889142362
C        0.8119451840   -0.4783034284    0.4920856298
H        0.0122838727   -0.0302806588   -0.0909041361
H       -0.1498630181   -0.0810760860    2.3718313279
C        1.7167859944   -1.1395533839    4.1348693982
O        2.4373567390   -1.8226228019    4.8195694351
O        0.7649297574   -0.3497088325    4.6851517778
H        0.8588265168   -0.4875784886    5.6390245921
H        3.6683852806   -2.0734524976    2.5805920126
H        3.8229864952   -2.0170558180    0.1107122950
15   

H        1.9716839468   -1.0475016574   -1.2388639888
C        1.9132134570   -1.0499013536   -0.1538816147
C        2.9316320217   -1.6363231102    0.6029275483
C        2.8559176633   -1.6392787990    2.0013721641
C        1.7711758701   -1.0614683951    2.6583320889
C        0.7462428765   -0.4710201097    1.8892632618
C        0.8193503512   -0.4666597791    0.4912754711
H        0.0247348451   -0.0093772655   -0.0914311799
H       -0.1134979541   -0.0118415786    2.3706635338
C        1.7452535820   -1.0947464362    4.1362315885
O        2.6010901807   -1.5895811598    4.8276185173
O        0.6531705636   -0.5093032044    4.6816360763
H        0.7779856902   -0.6089903343    5.6367401846
H        3.6566942903   -2.0997824345    2.5761518007
H        3.7841534343   -2.0910885864    0.1064278070
15   

H        1.9428082367   -1.0963257375   -1.2386207446
C        1.8962408271   -1.0779957803   -0.1532147259
C        2.9074101875   -1.6776607348    0.6032335700
C        2.8472829559   -1.6530115717    2.0022310415
C        1.7877701653   -1.0308317694    2.6592356365
C        0.7669195965   -0.4332572500    1.8913605536
C        0.8243410564   -0.4558360532    0.4928024868
H        0.0346414252    0.0102412516   -0.0896115562
H       -0.0752428192    0.0541585859    2.3761404560
C        1.7680236527   -1.0466950957    4.1378279895
O        2.7114770644   -1.3258307833    4.8353945750
O        0.5776520684   -0.6891142634    4.6743416116
H        0.7186139791   -0.7416864910    5.6309313324
H        3.6406253076   -2.1237621888    2.5789886473
H        3.7419410507   -2.1639323511    0.1060330407
15   

H        1.9153639842   -1.1385417181   -1.2355604805
C        1.8803413640   -1.1010625168   -0.1502143791
C        2.8824904191   -1.7163504380    0.6063617942
C        2.8371716160   -1.6662333475    2.0052864486
C        1.8045831785   -0.9994947031    2.6597614547
C        0.7894775970   -0.3928852424    1.8941243115
C        0.8314073456   -0.4399929017    0.4956123738
H        0.0476222165    0.0360751301   -0.0866953047
H       -0.0337933313    0.1199081787    2.3852618157
C        1.7840533419   -0.9976994261    4.1397371598
O        2.7616547916   -1.0494982360    4.8426783265
O        0.5419985607   -0.8781400063    4.6641637115
H        0.6825484073   -0.8802387830    5.6221930097
H        3.6205537307   -2.1476979566    2.5866193705
H        3.6978776353   -2.2341902772    0.1092896884
15   

H        1.8897883186   -1.1733111990   -1.2310666849
C        1.8653333524   -1.1182840728   -0.1461791298
C        2.8555594094   -1.7517522974    0.6116652667
C        2.8236111673   -1.6785019759    2.0100256110
C        1.8194261163   -0.9679417384    2.6602269800
C        0.8133162775   -0.3486609863    1.8959990882
C        0.8408645655   -0.4178535456    0.4980399674
H        0.0649311866    0.0702599824   -0.0847933790
H        0.0095154831    0.1890714427    2.3926635257
C        1.7934632355   -0.9448832003    4.1430370010
O        2.7502839752   -0.7666230362    4.8516483970
O        0.5468174355   -1.0710115412    4.6534111148
H        0.6708247958   -1.0221735101    5.6123898655
H        3.5954067902   -2.1730650133    2.5954336229
H        3.6506066896   -2.3015118225    0.1159353013
15   

H        1.8737384460   -1.2017562612   -1.2273500643
C        1.8548433856   -1.1316266978   -0.1432232962
C        2.8264982576   -1.7872614790    0.6201855958
C        2.8015836751   -1.6941567534    2.0176222523
C        1.8244835839   -0.9416422295    2.6591073548
C        0.8359082710   -0.3018934812    1.8917942028
C        0.8555563708   -0.3900064016    0.4947761466
H        0.0933591553    0.1148180974   -0.0919266168
H        0.0524914751    0.2650288096    2.3883488057
C        1.7910699962   -0.8900048866    4.1451899715
O        2.6770102737   -0.4859195492    4.8509845332
O        0.5974144029   -1.2735546665    4.6513671071
H        0.6959587198   -1.1758827109    5.6094562441
H        3.5577840995   -2.2057501873    2.6082042090
H        3.6011891651   -2.3695057499    0.1293563683
15   

H        1.8759931834   -1.2160241101   -1.2250214353
C        1.8528316988   -1.1344748046   -0.1417755517
C        2.7940652042   -1.8190167870    0.6345525776
C        2.7635605273   -1.7112254378    2.0308891714
C        1.8088804705   -0.9196584023    2.6566764989
C        0.8545991833   -0.2450489964    1.8781750354
C        0.8795031840   -0.3474887665    0.4821830948
H        0.1425621954    0.1822961824   -0.1146949141
H        0.0943199315    0.3599492871    2.3654009399
C        1.7699864762   -0.8345619914    4.1451889787
O        2.5399579867   -0.2183024690    4.8314923067
O        0.7111676534   -1.4888450329    4.6709636326
H        0.7857914807   -1.3483251941    5.6257700274
H        3.4961626971   -2.2446375576    2.6313883053
H        3.5494037913   -2.4346843264    0.1544802476
15   

H        1.9106465783   -1.2132795952   -1.2245241014
C        1.8684754938   -1.1259016892   -0.1423056381
C        2.7633789291   -1.8466281914    0.6560121879
C        2.7082077333   -1.7317931572    2.0510529156
C        1.7676188039   -0.9061614372    2.6526979286
C        0.8706339917   -0.1813077172    1.8528038277
C        0.9201931935   -0.2911093072    0.4579934374
H        0.2238369236    0.2723221526   -0.1565536990
H        0.1363160994    0.4686379398    2.3215826933
C        1.7235761227   -0.7864501195    4.1403386036
O        2.3327034541    0.0170083868    4.7929140153
O        0.9060196340   -1.6989718354    4.7090253050
H        0.9623961642   -1.5211176593    5.6587941553
H        3.4062956505   -2.2911159668    2.6686159195
H        3.5024428383   -2.4949347553    0.1939343901
15   

H        1.9514621128   -1.2012018143   -1.2237355182
C        1.8846863998   -1.1143249794   -0.1427154949
C        2.7255932910   -1.8757524860    0.6763716171
C        2.6387882206   -1.7617532588    2.0698602660
C        1.7112776663   -0.9050374246    2.6491887030
C        0.8813248394   -0.1260210223    1.8284328802
C        0.9626041629   -0.2353277321    0.4350646629
H        0.3135549225    0.3652771225   -0.1958568370
H        0.1751459823    0.5660285375    2.2801699206
C        1.6627576143   -0.7599503163    4.1322825295
O        2.0749834754    0.1840236460    4.7509227253
O        1.1553143583   -1.8515668274    4.7458418182
H        1.1932882084   -1.6419974870    5.6900963384
H        3.2972781977   -2.3501740397    2.7037193290
H        3.4482927899   -2.5539657314    0.2316800956
15   

H        1.9884328069   -1.1981721678   -1.2223636359
C        1.8991833711   -1.1130902460   -0.1428246144
C        2.6940530342   -1.9055306256    0.6924233810
C        2.5786730363   -1.7936296870    2.0840381168
C        1.6632396550   -0.9118325715    2.6466059170
C        0.8864727579   -0.0964223479    1.8086642735
C        0.9963933606   -0.2033945990    0.4171691015
H        0.3858299594    0.4242341015   -0.2257663941
H        0.1995307559    0.6232956079    2.2471974514
C        1.5962129775   -0.7529458054    4.1231748595
O        1.7812220763    0.2768979128    4.7161909590
O        1.3883497056   -1.9219453266    4.7700384702
H        1.3883606896   -1.6850309717    5.7086952250
H        3.2045958774   -2.4055552027    2.7287742087
H        3.4041913481   -2.6057748048    0.2618733164
15   

H        2.0149212348   -1.1944449737   -1.2224271467
C        1.9110576143   -1.1123896624   -0.1439611385
C        2.6681553489   -1.9321837271    0.6994086970
C        2.5343863698   -1.8244260447    2.0897928548
C        1.6372779206   -0.9181442789    2.6452156359
C        0.8985684554   -0.0769154732    1.7970060367
C        1.0272049613   -0.1795220505    0.4069583139
H        0.4454532642    0.4694412126   -0.2415042997
H        0.2252664394    0.6605116649    2.2278622205
C        1.5411089085   -0.7595789055    4.1160822823
O        1.4896697931    0.2955813614    4.6937461185
O        1.5887201692   -1.9344694752    4.7856600817
H        1.5333024597   -1.6844647457    5.7193981239
H        3.1353325174   -2.4599886772    2.7355671647
H        3.3639638814   -2.6510317944    0.2761765090
15   

H        2.0401899346   -1.1866240999   -1.2236677539
C        1.9256876349   -1.1083730030   -0.1459963618
C        2.6489146335   -1.9537308787    0.7011561707
C        2.5017305012   -1.8517560583    2.0907516065
C        1.6270662862   -0.9213713044    2.6441669162
C        0.9177629619   -0.0597453759    1.7893951116
C        1.0602871525   -0.1566562277    0.4005041546
H        0.5019660489    0.5104017060   -0.2502089255
H        0.2537795782    0.6897796848    2.2143290598
C        1.4956755607   -0.7734985858    4.1107632085
O        1.2113619973    0.2520745689    4.6764041840
O        1.7686383898   -1.9065735404    4.7996562555
H        1.6501562527   -1.6594205825    5.7283707797
H        3.0806738921   -2.5125344086    2.7312363315
H        3.3291000114   -2.6893842625    0.2814014222
15   

H        2.0648542809   -1.1740149181   -1.2244986688
C        1.9406964919   -1.1009785854   -0.1475290543
C        2.6308885817   -1.9717997550    0.7007446674
C        2.4713793375   -1.8776009104    2.0896492677
C        1.6211153547   -0.9241296484    2.6435138879
C        0.9377947299   -0.0436270375    1.7850007106
C        1.0931442564   -0.1330639403    0.3971583472
H        0.5565605786    0.5511371052   -0.2540570235
H        0.2815442150    0.7154852905    2.2051758905
C        1.4546566499   -0.7934309211    4.1070616868
O        0.9511186087    0.1524007142    4.6606327138
O        1.9392712015   -1.8416860660    4.8143198140
H        1.7607422638   -1.6121338381    5.7380081207
H        3.0265240120   -2.5652977351    2.7226372290
H        3.2946139997   -2.7230498440    0.2822451553
15   

H        2.0869133917   -1.1573568054   -1.2238971899
C        1.9531978353   -1.0915837507   -0.1476030355
C        2.6109762777   -1.9883131178    0.6991181661
C        2.4389648236   -1.9040534453    2.0872114912
C        1.6135344168   -0.9298471498    2.6431869150
C        0.9544077460   -0.0303193594    1.7846256649
C        1.1225171748   -0.1098426653    0.3977283230
H        0.6071071066    0.5915443909   -0.2523109610
H        0.3061436544    0.7364525222    2.2033544945
C        1.4158270656   -0.8205743991    4.1043664813
O        0.7150869652    0.0001981621    4.6434598662
O        2.0995468685   -1.7382239207    4.8286323107
H        1.8698879424   -1.5386220220    5.7479960437
H        2.9660070519   -2.6178585298    2.7151962448
H        3.2580458837   -2.7535749858    0.2799109654
