15   

H        1.8742246869   -1.0399147885   -1.2176160441
C        1.8471054420   -1.0521768479   -0.1318483009
C        2.7498568678   -1.8443391598    0.5837821267
C        2.7137949045   -1.8565207826    1.9834006267
C        1.7887274012   -1.0844438070    2.6766900567
C        0.8791151355   -0.2952847366    1.9551882066
C        0.9090185029   -0.2766496598    0.5557833336
H        0.2046896784    0.3400284593    0.0050371779
H        0.1468493985    0.3113309938    2.4797605580
C        1.7560385899   -1.1071933968    4.1752215798
H        0.8332531395   -0.6728884622    4.5519922579
H        1.8246356516   -2.1369349550    4.5387938068
H        2.5991367261   -0.5352130439    4.5738836097
H        3.4198218088   -2.4752777926    2.5295393565
H        3.4795921730   -2.4500194782    0.0542655864
15   

H        1.8566916285   -1.0516525991   -1.2181152140
C        1.8342371795   -1.0630957087   -0.1322324093
C        2.7196954723   -1.8776742376    0.5796716612
C        2.6902413735   -1.8880178280    1.9795515689
C        1.7908018542   -1.0916122793    2.6769828682
C        0.8962783359   -0.2824616964    1.9591999631
C        0.9191988993   -0.2644643288    0.5597097144
H        0.2276897358    0.3696033663    0.0124781203
H        0.1824961182    0.3416634452    2.4887683885
C        1.7551815896   -1.1068091328    4.1755582939
H        0.7535309580   -0.8939814012    4.5424570917
H        2.0560351020   -2.0877541297    4.5557235108
H        2.4410216472   -0.3513332058    4.5701648962
H        3.3836148255   -2.5248388505    2.5210552347
H        3.4311301537   -2.5021488052    0.0470868919
15   

H        1.8699447383   -1.0367823458   -1.2179760644
C        1.8463529188   -1.0516221904   -0.1321588602
C        2.7022461092   -1.8992510175    0.5772929921
C        2.6708837525   -1.9146207690    1.9772008136
C        1.7985639730   -1.0919758491    2.6767519835
C        0.9352725004   -0.2476790454    1.9617758307
C        0.9595302723   -0.2241869393    0.5624666850
H        0.2909268502    0.4360143079    0.0176768124
H        0.2437392683    0.3979889349    2.4950912923
C        1.7544285570   -1.1056049182    4.1750925408
H        0.7252460379   -1.1225162667    4.5292013422
H        2.2655684138   -1.9884440645    4.5707019520
H        2.2469809139   -0.2114991747    4.5686234734
H        3.3418621313   -2.5781152419    2.5147995080
H        3.3921348186   -2.5458209883    0.0427344573
15   

H        1.9007254866   -1.0008857544   -1.2164607707
C        1.8724707951   -1.0226170033   -0.1308701774
C        2.6898099288   -1.9100667613    0.5752958719
C        2.6510952350   -1.9357406364    1.9749062101
C        1.8071087872   -1.0869596749    2.6773310324
C        0.9878112113   -0.1972332291    1.9658548995
C        1.0188586027   -0.1635924087    0.5669069107
H        0.3809784209    0.5285276001    0.0248994643
H        0.3222577189    0.4728181459    2.5021579545
C        1.7561051887   -1.1046983403    4.1754941683
H        0.7515481682   -1.3512507877    4.5177860984
H        2.4508704144   -1.8458013688    4.5818901016
H        2.0303128293   -0.1214416985    4.5693206921
H        3.2921031399   -2.6308813911    2.5090342602
H        3.3551578859   -2.5799959736    0.0383960649
15   

H        1.9377796433   -0.9706959067   -1.2148540604
C        1.9024086925   -0.9971147722   -0.1295766402
C        2.6783939648   -1.9214303769    0.5759963651
C        2.6290363186   -1.9544205078    1.9750773933
C        1.8122761547   -1.0787736395    2.6774185860
C        1.0401167826   -0.1470125432    1.9668001389
C        1.0816546930   -0.1066278642    0.5682815752
H        0.4769206547    0.6148527146    0.0265670145
H        0.3999210092    0.5477133265    2.5025569713
C        1.7569843938   -1.1040321890    4.1752366299
H        0.8288212510   -1.5700606510    4.5073632707
H        2.5991336101   -1.6686421796    4.5865495035
H        1.8009799905   -0.0851889676    4.5718285679
H        3.2371587349   -2.6781984221    2.5096647660
H        3.3194415528   -2.6145977268    0.0390334763
15   

H        1.9092198517   -0.9515567113   -1.2151736225
C        1.8771389233   -0.9800909599   -0.1298478002
C        3.0499639627   -1.1887871270    0.6018617694
C        3.0049391229   -1.2279282868    2.0008246502
C        1.8024816128   -1.0658421056    2.6773596579
C        0.6282551709   -0.8465114036    1.9403604183
C        0.6633702338   -0.8071439381    0.5415718064
H       -0.2511044201   -0.6432979011   -0.0210846227
H       -0.3191713852   -0.7118585951    2.4538871498
C        1.7561427477   -1.1020175480    4.1752061552
H        1.5915904654   -2.1245411640    4.5174965741
H        2.6972275094   -0.7364134405    4.5970935819
H        0.9452558732   -0.4701198347    4.5499631107
H        3.9228841105   -1.3912129503    2.5578289143
H        3.9962034434   -1.3212980966    0.0853136606
15   

H        1.9072962553   -0.9704146492   -1.2154336992
C        1.8740770417   -0.9952536092   -0.1300504419
C        3.0411799679   -1.2313157327    0.6025449377
C        2.9948231422   -1.2647845152    2.0015089681
C        1.7960717440   -1.0683327860    2.6773585909
C        0.6270849926   -0.8247663282    1.9391355736
C        0.6644778047   -0.7906017832    0.5401980893
H       -0.2452542920   -0.6059665842   -0.0237079283
H       -0.3178897549   -0.6652497628    2.4499603517
C        1.7574195899   -1.1026714169    4.1755655260
H        1.8339871663   -2.1317489041    4.5279719659
H        2.5913705784   -0.5264880709    4.5876305849
H        0.8243869808   -0.6722547834    4.5515058813
H        3.9073446552   -1.4492648936    2.5608582256
H        3.9838911076   -1.3892898330    0.0867044977
15   

H        1.9044401621   -1.0144710985   -1.2166812327
C        1.8703938077   -1.0316335089   -0.1311754037
C        3.0327655347   -1.2847983710    0.6033717762
C        2.9858469521   -1.3063474143    2.0025205532
C        1.7910216247   -1.0778770993    2.6763603151
C        0.6254835949   -0.8239056777    1.9361277122
C        0.6642735058   -0.8007181312    0.5369910706
H       -0.2416717797   -0.6035746152   -0.0287757839
H       -0.3168549520   -0.6432438254    2.4447359356
C        1.7565899958   -1.1043197483    4.1747508846
H        2.0716046531   -2.0798477736    4.5437802334
H        2.4307133109   -0.3419314364    4.5765088749
H        0.7473624770   -0.9039291356    4.5467093991
H        3.8942462131   -1.5039744220    2.5641081295
H        3.9722526471   -1.4648074180    0.0888747594
15   

H        1.8915847143   -1.0572471772   -1.2174046567
C        1.8607215804   -1.0672294700   -0.1317136720
C        3.0202933348   -1.3381381624    0.6008238519
C        2.9778343542   -1.3483893169    2.0002733585
C        1.7914942492   -1.0881724628    2.6766896568
C        0.6273215352   -0.8231341255    1.9382803973
C        0.6613701644   -0.8100782726    0.5389037956
H       -0.2427656964   -0.5998550041   -0.0250437659
H       -0.3093914052   -0.6214702639    2.4494204792
C        1.7562704654   -1.1054734125    4.1752343300
H        2.2881699791   -1.9725691504    4.5625466059
H        2.2280292410   -0.1996937976    4.5675535495
H        0.7253527643   -1.1475401247    4.5393426153
H        3.8844453242   -1.5598434959    2.5596889124
H        3.9543090941   -1.5402464593    0.0845715227
15   

H        1.8845865540   -1.0759111079   -1.2178812377
C        1.8565286113   -1.0830391998   -0.1320923025
C        3.0107735450   -1.3816718924    0.5979904560
C        2.9721461765   -1.3872727179    1.9976753581
C        1.7962450130   -1.0937757511    2.6767335593
C        0.6365954473   -0.8041456655    1.9409286863
C        0.6660464977   -0.7948988690    0.5414819383
H       -0.2344344884   -0.5634382195   -0.0199900611
H       -0.2924279526   -0.5784824543    2.4561457828
C        1.7546885109   -1.1058944058    4.1751134782
H        2.4683247082   -1.8211359077    4.5778259293
H        1.9991668073   -0.1116518881    4.5605321385
H        0.7573611641   -1.3844657077    4.5286832357
H        3.8755680181   -1.6204553300    2.5535489523
H        3.9378742270   -1.6087436838    0.0796534085
15   

H        1.8864597296   -1.0571776783   -1.2177663981
C        1.8597360444   -1.0679358483   -0.1319734155
C        3.0037358342   -1.4096857861    0.5952305228
C        2.9667038138   -1.4206544453    1.9950322928
C        1.8031661033   -1.0913766434    2.6769823225
C        0.6542772012   -0.7559569717    1.9442388556
C        0.6812916726   -0.7411295095    0.5448563751
H       -0.2115302757   -0.4757093927   -0.0138145348
H       -0.2647629614   -0.5007031858    2.4636039240
C        1.7534973224   -1.1052950353    4.1751428831
H        2.6062960496   -1.6378545821    4.5888779519
H        1.7637291953   -0.0799746565    4.5566052446
H        0.8401097778   -1.6004927488    4.5183078946
H        3.8632236617   -1.6878537990    2.5466784386
H        3.9217640115   -1.6663409382    0.0745530024
15   

H        1.8998508930   -1.0109341415   -1.2168542251
C        1.8714127023   -1.0299994766   -0.1312186770
C        2.9989379750   -1.4263234719    0.5939853415
C        2.9591638663   -1.4498878758    1.9936040281
C        1.8084612084   -1.0829040569    2.6772245096
C        0.6782056311   -0.6855192509    1.9466963026
C        0.7074973720   -0.6584730269    0.5475715496
H       -0.1723375441   -0.3494659288   -0.0092939133
H       -0.2292990413   -0.3956637434    2.4682058054
C        1.7532012506   -1.1040459373    4.1751406520
H        2.7001922670   -1.4320913932    4.5962977703
H        1.5334070626   -0.1018779547    4.5551796905
H        0.9687916821   -1.7890937448    4.5105374897
H        3.8432407232   -1.7601525929    2.5427474501
H        3.9062248805   -1.7161238074    0.0718745464
15   

H        1.9176761444   -0.9666515540   -1.2153999943
C        1.8853875088   -0.9932125021   -0.1300299769
C        2.9931143947   -1.4428447202    0.5946330928
C        2.9476723647   -1.4778784633    1.9937941433
C        1.8092444677   -1.0730249100    2.6773993245
C        0.7015049148   -0.6151288110    1.9476045769
C        0.7366109657   -0.5771808003    0.5488400965
H       -0.1272718364   -0.2256721080   -0.0077930497
H       -0.1944962509   -0.2906163999    2.4685684848
C        1.7538972410   -1.1029544777    4.1751260796
H        2.7487518543   -1.2106476381    4.6002637585
H        1.3165640765   -0.1749513853    4.5556644957
H        1.1393508826   -1.9449150736    4.5072936371
H        3.8156734867   -1.8299043425    2.5434384755
H        3.8891625241   -1.7656063844    0.0724504926
15   

H        1.9265531378   -0.9507668962   -1.2145446241
C        1.8911820957   -0.9793588244   -0.1293222931
C        2.9812422040   -1.4695830851    0.5958729426
C        2.9315017858   -1.5078363497    1.9946920267
C        1.8048875951   -1.0668972603    2.6775240460
C        0.7160122331   -0.5659622522    1.9470994105
C        0.7561923912   -0.5251076743    0.5484813776
H       -0.0934460186   -0.1418402187   -0.0091115200
H       -0.1700473165   -0.2116386798    2.4655683364
C        1.7549799869   -1.1029086423    4.1752899648
H        2.7487040999   -0.9805576382    4.6002390882
H        1.1201182158   -0.2976671474    4.5571437996
H        1.3462415657   -2.0611106205    4.5093813645
H        3.7846034447   -1.8912616578    2.5467268376
H        3.8666549379   -1.8215023352    0.0743851994
15   

H        1.9220674599   -0.9709849627   -1.2150851761
C        1.8858410086   -0.9952884647   -0.1297861475
C        2.9632688734   -1.5106657069    0.5969526580
C        2.9128591984   -1.5424860138    1.9958140831
C        1.7976648515   -1.0684567633    2.6771960564
C        0.7201915931   -0.5453356485    1.9449531042
C        0.7621960969   -0.5107039915    0.5461601408
H       -0.0773992932   -0.1083916138   -0.0132295541
H       -0.1576813532   -0.1669429516    2.4602407732
C        1.7556975838   -1.1037526344    4.1752591546
H        2.6957019728   -0.7500682883    4.5948953997
H        0.9514877567   -0.4674276922    4.5566679086
H        1.5816556853   -2.1283206875    4.5171323797
H        3.7552424353   -1.9451002961    2.5506965105
H        3.8393388490   -1.8868483829    0.0766280533
15   

H        1.9030020839   -1.0118588547   -1.2161284171
C        1.8695363836   -1.0287654503   -0.1305990237
C        2.9391147135   -1.5601429954    0.5961830809
C        2.8931199987   -1.5805299236    1.9953635835
C        1.7911748650   -1.0763089024    2.6773605284
C        0.7186628834   -0.5434022776    1.9446280533
C        0.7569742320   -0.5193474791    0.5454699085
H       -0.0767394630   -0.1053447413   -0.0141868970
H       -0.1506754055   -0.1448921731    2.4591745223
C        1.7551629569   -1.1043264269    4.1758684032
H        2.5872333820   -0.5327958794    4.5858654765
H        0.8223109997   -0.6748260528    4.5531844158
H        1.8288559778   -2.1365517011    4.5310613822
H        3.7291468026   -1.9954435397    2.5508131685
H        3.8058303539   -1.9571731330    0.0756792768
15   

H        1.8844837471   -1.0512285934   -1.2174978835
C        1.8547163119   -1.0616654577   -0.1317803745
C        2.9166710775   -1.6093111570    0.5941273635
C        2.8763592565   -1.6195261807    1.9936434940
C        1.7892404665   -1.0863777769    2.6766868998
C        0.7213857153   -0.5433238545    1.9448894620
C        0.7542004986   -0.5283377754    0.5455045513
H       -0.0740450673   -0.1023362203   -0.0132656461
H       -0.1379224557   -0.1258566511    2.4612963209
C        1.7542529112   -1.1055841955    4.1752232268
H        2.4285932558   -0.3474217613    4.5746232856
H        0.7439241450   -0.9050429168    4.5442189000
H        2.0668835880   -2.0859566567    4.5472353348
H        3.7067894345   -2.0471860436    2.5478048877
H        3.7732999117   -2.0264702840    0.0726724888
15   

H        1.8735954015   -1.0676351985   -1.2181470610
C        1.8472480235   -1.0758055545   -0.1323226396
C        2.8975433374   -1.6485548398    0.5910700414
C        2.8620472013   -1.6549944079    1.9908411012
C        1.7929569520   -1.0924277043    2.6766339622
C        0.7352195482   -0.5270768339    1.9474741724
C        0.7626217564   -0.5148573799    0.5480133432
H       -0.0571388163   -0.0695403579   -0.0082028558
H       -0.1110400791   -0.0884685805    2.4679800982
C        1.7528447108   -1.1050043909    4.1750489879
H        2.2306726610   -0.2063102213    4.5672609795
H        0.7188960925   -1.1386377926    4.5315523093
H        2.2777294583   -1.9821104986    4.5655309115
H        3.6843133497   -2.1026152478    2.5413428839
H        3.7416068981   -2.0880433805    0.0674699736
15   

H        1.8788951211   -1.0503465813   -1.2179341650
C        1.8531981081   -1.0623138510   -0.1321292414
C        2.8840669760   -1.6731403804    0.5879722902
C        2.8491534852   -1.6850901226    1.9878251595
C        1.8000645621   -1.0919420155    2.6768374311
C        0.7628739825   -0.4860974378    1.9511844309
C        0.7889694894   -0.4679776995    0.5518264585
H       -0.0158550940    0.0074332660   -0.0012865425
H       -0.0670101781   -0.0221189107    2.4761093034
C        1.7524081731   -1.1042765441    4.1750873265
H        2.0097944096   -0.1192270884    4.5654717174
H        0.7474774213   -1.3676153780    4.5186406968
H        2.4564283024   -1.8368676754    4.5810971162
H        3.6572043331   -2.1630114355    2.5338068889
H        3.7126516590   -2.1381927495    0.0617345987
15   

H        1.9027660273   -1.0092362373   -1.2167654414
C        1.8734235776   -1.0287081083   -0.1311613902
C        2.8761031903   -1.6871329830    0.5867782139
C        2.8355435165   -1.7104757791    1.9863821878
C        1.8070054623   -1.0850271304    2.6770745830
C        0.8019181385   -0.4248808652    1.9538785234
C        0.8331599730   -0.3956607257    0.5548422395
H        0.0507398224    0.1178492736    0.0036434673
H       -0.0090844865    0.0689874839    2.4810608671
C        1.7524991236   -1.1028108112    4.1750559760
H        1.7793356535   -0.0867464620    4.5674415217
H        0.8283445039   -1.5842384667    4.5085942415
H        2.5999314440   -1.6559670096    4.5909505422
H        3.6218757949   -2.2260832072    2.5297389783
H        3.6869771496   -2.1808047357    0.0590240455
15   

H        1.9291629932   -0.9682227390   -1.2148944422
C        1.8948387346   -0.9946669853   -0.1295838126
C        2.8664590806   -1.6997552289    0.5867265136
C        2.8182909888   -1.7336870449    1.9858230448
C        1.8106021447   -1.0757240760    2.6777123193
C        0.8410080985   -0.3624589514    1.9562570198
C        0.8797303896   -0.3231859615    0.5576190342
H        0.1222133675    0.2275321306    0.0075559844
H        0.0492814555    0.1614547041    2.4837155892
C        1.7536406389   -1.1022274779    4.1755017910
H        1.5506667177   -0.1083138384    4.5703213642
H        0.9601987523   -1.7798790465    4.5043458220
H        2.7036129645   -1.4478353354    4.5941680121
H        3.5797575090   -2.2857863812    2.5287801665
H        3.6587504669   -2.2218631744    0.0581133423
15   

H        1.9413466205   -0.9550165933   -1.2140221510
C        1.9036904146   -0.9827621960   -0.1288542705
C        2.8490873036   -1.7224920430    0.5876829907
C        2.7961662388   -1.7585928913    1.9864469903
C        1.8081551644   -1.0690460257    2.6778506752
C        0.8665028469   -0.3190792730    1.9560968104
C        0.9106492740   -0.2780988300    0.5576012332
H        0.1740600199    0.2996380326    0.0068329559
H        0.0912310305    0.2309192874    2.4813729350
C        1.7551135005   -1.1026625744    4.1756204759
H        1.3314559010   -0.1817673515    4.5700531083
H        1.1367842899   -1.9426322705    4.5057030195
H        2.7601692796   -1.2209725232    4.5917433176
H        3.5361420701   -2.3372254623    2.5315661264
H        3.6244253633   -2.2698899338    0.0595164586
15   

H        1.9317479799   -0.9712441545   -1.2147731875
C        1.8946002650   -0.9951640234   -0.1294967471
C        2.8214115690   -1.7574962958    0.5877659339
C        2.7697665627   -1.7879518888    1.9866156906
C        1.8014228202   -1.0684440452    2.6773585242
C        0.8764152434   -0.2985228441    1.9546349858
C        0.9205008978   -0.2633091695    0.5559226416
H        0.1984360389    0.3313751466    0.0039575361
H        0.1153145146    0.2731276447    2.4774284730
C        1.7568009931   -1.1047980268    4.1753211087
H        1.1323154857   -0.3053785508    4.5665507387
H        1.3489028672   -2.0626102925    4.5116574112
H        2.7640277949   -0.9862782719    4.5860577339
H        3.4944074696   -2.3836431218    2.5340175513
H        3.5813000434   -2.3265950384    0.0600853853
15   

H        1.9044463187   -1.0067501793   -1.2163310265
C        1.8714271433   -1.0241574756   -0.1307969931
C        2.7858819608   -1.8011755779    0.5866303354
C        2.7409153879   -1.8216279573    1.9858540030
C        1.7929994700   -1.0748535693    2.6768432617
C        0.8760600410   -0.2955805517    1.9536799240
C        0.9145202670   -0.2698053488    0.5545713529
H        0.2017340004    0.3355834214    0.0021815418
H        0.1285086913    0.2942951385    2.4757368788
C        1.7568127995   -1.1064333867    4.1751589650
H        0.9620659823   -0.4723891953    4.5600563014
H        1.5837219054   -2.1291215036    4.5233411978
H        2.7096433322   -0.7519499475    4.5795572838
H        3.4556926084   -2.4284464504    2.5340222617
H        3.5312560745   -2.3890157788    0.0587938438
