15   

H        2.1271734929   -1.0610760278   -1.2209000613
C        1.9701880049   -1.0475305868   -0.1458256042
C        3.0517400079   -1.2090819563    0.7250415175
C        2.8496035073   -1.1921327329    2.1114852719
C        1.5750217493   -1.0076583079    2.6408529889
C        0.4892273860   -0.8565667777    1.7591057604
C        0.6850900382   -0.8725847774    0.3736021990
H       -0.1620525664   -0.7512159951   -0.2955417273
H       -0.5139387140   -0.7261740218    2.1592543630
C        1.3363139185   -1.0078945632    4.1002347776
O        0.2532049108   -1.1124393342    4.6203504509
O        2.4619677495   -0.8943827361    4.8444945148
H        2.1477967375   -0.9106842657    5.7603534889
H        3.7100954673   -1.3264421628    2.7621009915
H        4.0522035572   -1.3500578435    0.3259820573
15   

H        2.1246472735   -1.0335678528   -1.2187905111
C        1.9683865289   -1.0309927254   -0.1435298033
C        3.0460703669   -1.2339597291    0.7240858384
C        2.8439185366   -1.2315988433    2.1105081007
C        1.5758451323   -1.0141948099    2.6412102956
C        0.4920431654   -0.8312814731    1.7648196915
C        0.6874089081   -0.8324313539    0.3789791947
H       -0.1568539721   -0.6835925567   -0.2882414929
H       -0.5072725819   -0.6894837441    2.1703958274
C        1.3412519635   -1.0533571554    4.1018528964
O        0.3073808204   -1.3862309155    4.6242305881
O        2.4261715368   -0.7149018601    4.8376101115
H        2.1290439045   -0.7916085368    5.7560133366
H        3.6941522806   -1.4007106749    2.7666543251
H        4.0421658652   -1.3970850430    0.3225687258
15   

H        2.1177431439   -1.0081097239   -1.2164901233
C        1.9639218937   -1.0165901158   -0.1409080637
C        3.0381700593   -1.2616044573    0.7207711857
C        2.8382667866   -1.2736982318    2.1073376471
C        1.5785392440   -1.0245961847    2.6418248852
C        0.4961126307   -0.8062936825    1.7737735636
C        0.6889138944   -0.7926178244    0.3874298936
H       -0.1526154430   -0.6144556288   -0.2760297658
H       -0.4981077405   -0.6504706336    2.1861040876
C        1.3535862452   -1.0994281784    4.1052591957
O        0.4186322885   -1.6454844608    4.6319319426
O        2.3541342912   -0.5472864745    4.8298364497
H        2.0881478720   -0.6791061126    5.7514193558
H        3.6787827065   -1.4750823005    2.7669420199
H        4.0284889568   -1.4467075080    0.3145410928
15   

H        2.1067586671   -0.9837344511   -1.2155328098
C        1.9581488606   -1.0062315234   -0.1394204085
C        3.0296469154   -1.2973336440    0.7117965571
C        2.8360211088   -1.3272371152    2.0988945858
C        1.5870224546   -1.0499659896    2.6422061447
C        0.5058384020   -0.7862552980    1.7866920581
C        0.6923813379   -0.7543645058    0.3996199443
H       -0.1466354379   -0.5407648897   -0.2565031865
H       -0.4808957209   -0.6098539607    2.2079200007
C        1.3771912808   -1.1498826846    4.1105338262
O        0.5893811345   -1.8830960933    4.6473983084
O        2.2370585424   -0.3838120977    4.8190275749
H        2.0116184092   -0.5557742372    5.7446682798
H        3.6699107084   -1.5622609371    2.7556355038
H        4.0120815111   -1.5040916054    0.2969651415
15   

H        2.0896326678   -0.9507977337   -1.2157595140
C        1.9514565710   -0.9933206593   -0.1388611738
C        3.0217367948   -1.3390519376    0.6934669493
C        2.8415329041   -1.3943200049    2.0815640886
C        1.6068408550   -1.0943136274    2.6431597313
C        0.5275817097   -0.7671178897    1.8080125140
C        0.7008670508   -0.7096809098    0.4199554534
H       -0.1361632644   -0.4497560192   -0.2218173682
H       -0.4463829842   -0.5603794468    2.2442917344
C        1.4183718898   -1.2028539988    4.1181781231
O        0.8236936331   -2.0837055336    4.6786978889
O        2.0538775991   -0.2230840997    4.7977099286
H        1.8716525295   -0.4128145196    5.7292539652
H        3.6732220213   -1.6688498206    2.7254210858
H        3.9926307208   -1.5674594202    0.2631027695
15   

H        2.0780868720   -0.9098248398   -1.2148586097
C        1.9525835210   -0.9734706841   -0.1374505078
C        3.0178275799   -1.3854871835    0.6707002863
C        2.8537545594   -1.4680159714    2.0594546257
C        1.6377601395   -1.1415041076    2.6452017903
C        0.5679591447   -0.7298469024    1.8353318037
C        0.7247766886   -0.6452632808    0.4467129218
H       -0.1065118812   -0.3263710495   -0.1756232482
H       -0.3858865415   -0.4777536993    2.2914383387
C        1.4730089987   -1.2405544486    4.1258747246
O        1.1012532053   -2.2147593928    4.7218263265
O        1.7928661606   -0.0917309970    4.7602209398
H        1.6470276314   -0.2803550809    5.6983165487
H        3.6824125408   -1.7907054542    2.6845548204
H        3.9726394288   -1.6427917053    0.2210765896
15   

H        2.0619300576   -0.8790492778   -1.2142883962
C        1.9514689243   -0.9557136537   -0.1360818781
C        3.0114372532   -1.4250709136    0.6471003826
C        2.8664447572   -1.5247666222    2.0368281587
C        1.6710777304   -1.1693990617    2.6487218174
C        0.6126024339   -0.6836218605    1.8642054803
C        0.7500734814   -0.5820556638    0.4747114495
H       -0.0749028711   -0.2118185174   -0.1272486416
H       -0.3175966864   -0.3865708101    2.3416221778
C        1.5383119488   -1.2544280516    4.1318157707
O        1.4097146879   -2.2666544531    4.7662480239
O        1.5122984868   -0.0369475162    4.7172104097
H        1.4075128531   -0.2213766778    5.6616550473
H        3.6920747290   -1.8895829754    2.6426976776
H        3.9478265338   -1.7126184837    0.1774794082
15   

H        2.0487282120   -0.8846211316   -1.2172489131
C        1.9501732639   -0.9588596223   -0.1377204983
C        3.0022849928   -1.4686811906    0.6303329446
C        2.8726607065   -1.5653425127    2.0217252364
C        1.6979208442   -1.1710126480    2.6518016138
C        0.6503152005   -0.6382454674    1.8810806280
C        0.7728985011   -0.5398083523    0.4900044584
H       -0.0447276350   -0.1354386577   -0.0998982069
H       -0.2602933805   -0.3018336278    2.3702923973
C        1.5964290045   -1.2427548451    4.1339544843
O        1.7085418184   -2.2410864406    4.7950790157
O        1.2701398888   -0.0543677765    4.6902014542
H        1.2142168262   -0.2364177367    5.6393674399
H        3.6927049553   -1.9612305711    2.6159929389
H        3.9210358392   -1.7898442018    0.1478198083
15   

H        2.0333482043   -0.9131400049   -1.2227800335
C        1.9445723250   -0.9746811926   -0.1416054127
C        2.9880041414   -1.5117232922    0.6193108911
C        2.8713850995   -1.5919213787    2.0127836059
C        1.7174240984   -1.1528007744    2.6543384806
C        0.6776824925   -0.5944718833    1.8881686363
C        0.7885130282   -0.5127327929    0.4950169796
H       -0.0224195658   -0.0880494230   -0.0898372744
H       -0.2191298282   -0.2253043687    2.3794631771
C        1.6441545613   -1.2154775829    4.1344176728
O        1.9849076384   -2.1537229375    4.8074671940
O        1.0718727870   -0.1194498224    4.6837193201
H        1.0708197987   -0.2971092250    5.6354752263
H        3.6854929509   -2.0098007028    2.6006347261
H        3.8902879557   -1.8671373858    0.1297716661
15   

H        2.0177214915   -0.9530387307   -1.2296521200
C        1.9381291413   -0.9963334037   -0.1468788004
C        2.9725888542   -1.5530641368    0.6115626638
C        2.8683765349   -1.6096800419    2.0070876944
C        1.7361895746   -1.1234446828    2.6558132027
C        0.7023970768   -0.5507018663    1.8890972267
C        0.8022460901   -0.4928422820    0.4939286600
H       -0.0027080358   -0.0551392778   -0.0896011717
H       -0.1835730085   -0.1515385277    2.3766151608
C        1.6838699788   -1.1792633719    4.1339537702
O        2.2303402313   -2.0124054923    4.8120087637
O        0.9059713741   -0.2185092884    4.6851732957
H        0.9568760425   -0.3830035639    5.6380264738
H        3.6777040729   -2.0441232101    2.5899185121
H        3.8587785062   -1.9425880594    0.1185777727
15   

H        1.9967623956   -0.9985489483   -1.2355066915
C        1.9271955738   -1.0218995127   -0.1514283079
C        2.9532646218   -1.5945606991    0.6058808599
C        2.8626774277   -1.6251127168    2.0031200482
C        1.7537231703   -1.0925346466    2.6572694761
C        0.7245635572   -0.5100196366    1.8889142312
C        0.8119452639   -0.4783033420    0.4920856144
H        0.0122840440   -0.0302804388   -0.0909041728
H       -0.1498626917   -0.0810754609    2.3718313108
C        1.7167859944   -1.1395533839    4.1348693982
O        2.4373567390   -1.8226228019    4.8195694351
O        0.7649306733   -0.3497078167    4.6851518682
H        0.8588025726   -0.4876063943    5.6390229528
H        3.6683853232   -2.0734523946    2.5805920358
H        3.8229864880   -2.0170558862    0.1107122957
15   

H        1.9716838237   -1.0475018280   -1.2388639987
C        1.9132133692   -1.0499014733   -0.1538816216
C        2.9316319737   -1.6363231682    0.6029275415
C        2.8559176633   -1.6392787990    2.0013721641
C        1.7711758701   -1.0614683951    2.6583320889
C        0.7462428415   -0.4710201629    1.8892632642
C        0.8193502689   -0.4666598918    0.4912754704
H        0.0247347250   -0.0093774299   -0.0914311693
H       -0.1134979970   -0.0118416491    2.3706635391
C        1.7452535820   -1.0947464362    4.1362315885
O        2.6010901807   -1.5895811598    4.8276185173
O        0.6531705530   -0.5093032231    4.6816360777
H        0.7779856554   -0.6089903925    5.6367401852
H        3.6566943133   -2.0997823982    2.5761517977
H        3.7841533781   -2.0910886467    0.1064277908
15   

H        1.9428083685   -1.0963257397   -1.2386207559
C        1.8962409063   -1.0779957940   -0.1532147395
C        2.9074102775   -1.6776606842    0.6032335806
C        2.8472829559   -1.6530115717    2.0022310415
C        1.7877701653   -1.0308317694    2.6592356365
C        0.7669194466   -0.4332575456    1.8913605171
C        0.8243409829   -0.4558362979    0.4928024465
H        0.0346412405    0.0102407765   -0.0896116318
H       -0.0752432311    0.0541578773    2.3761403632
C        1.7680236527   -1.0466950957    4.1378279895
O        2.7114770644   -1.3258307833    4.8353945750
O        0.5776517150   -0.6891155103    4.6743416239
H        0.7186248584   -0.7416512131    5.6309316988
H        3.6406252520   -2.1237622497    2.5789886771
H        3.7419411891   -2.1639322664    0.1060330970
15   

H        1.9153642457   -1.1385417328   -1.2355605232
C        1.8803415356   -1.1010625178   -0.1502144263
C        2.8824905799   -1.7163503509    0.6063618081
C        2.8371716160   -1.6662333475    2.0052864486
C        1.8045831785   -0.9994947031    2.6597614547
C        0.7894773935   -0.3928856593    1.8941242158
C        0.8314072878   -0.4399932304    0.4956122728
H        0.0476220047    0.0360744419   -0.0866954919
H       -0.0337940158    0.1199071367    2.3852615033
C        1.7840533419   -0.9976994261    4.1397371598
O        2.7616547916   -1.0494982360    4.8426783265
O        0.5419985566   -0.8781413123    4.6641638755
H        0.6825564494   -0.8801565330    5.6221921877
H        3.6205535647   -2.1476981257    2.5866194663
H        3.6978778538   -2.2341901831    0.1092897904
15   

H        1.8897886780   -1.1733115592   -1.2310668040
C        1.8653336139   -1.1182842830   -0.1461792587
C        2.8555596267   -1.7517523432    0.6116652832
C        2.8236111673   -1.6785019759    2.0100256110
C        1.8194261163   -0.9679417384    2.6602269800
C        0.8133160821   -0.3486614669    1.8959988401
C        0.8408645771   -0.4178540430    0.4980397143
H        0.0649310475    0.0702590316   -0.0847938100
H        0.0095146619    0.1890704022    2.3926627406
C        1.7934632355   -0.9448832003    4.1430370010
O        2.7502839752   -0.7666230362    4.8516483970
O        0.5468177525   -1.0710122953    4.6534114576
H        0.6708113679   -1.0220486991    5.6123856104
H        3.5954065075   -2.1730652236    2.5954338473
H        3.6506069476   -2.3015119731    0.1159354971
15   

H        1.8737394622   -1.2017560925   -1.2273502570
C        1.8548441221   -1.1316264886   -0.1432234963
C        2.8264986822   -1.7872613924    0.6201856190
C        2.8015836751   -1.6941567534    2.0176222523
C        1.8244835839   -0.9416422295    2.6591073548
C        0.8359084523   -0.3018934573    1.8917938234
C        0.8555569674   -0.3900062571    0.4947757501
H        0.0933599020    0.1148181500   -0.0919272873
H        0.0524912275    0.2650287641    2.3883476614
C        1.7910699962   -0.8900048866    4.1451899715
O        2.6770102737   -0.4859195492    4.8509845332
O        0.5974147734   -1.2735549337    4.6513674916
H        0.6959122472   -1.1757460708    5.6094475093
H        3.5577835799   -2.2057505964    2.6082045672
H        3.6011895961   -2.3695058946    0.1293566777
15   

H        1.8759941000   -1.2160239092   -1.2250215886
C        1.8528323681   -1.1344745815   -0.1417757132
C        2.7940655437   -1.8190167519    0.6345526014
C        2.7635605273   -1.7112254378    2.0308891714
C        1.8088804705   -0.9196584023    2.6566764989
C        0.8545995337   -0.2450487093    1.8781747152
C        0.8795038764   -0.3474884050    0.4821827617
H        0.1425631729    0.1822966795   -0.1146954846
H        0.0943201937    0.3599498590    2.3654000127
C        1.7699864762   -0.8345619914    4.1451889787
O        2.5399579867   -0.2183024690    4.8314923067
O        0.7111676413   -1.4888447829    4.6709637865
H        0.7857321672   -1.3482349830    5.6257615832
H        3.4961622309   -2.2446378661    2.6313886492
H        3.5494041005   -2.4346845268    0.1544805210
15   

H        1.9106466397   -1.2132795414   -1.2245241034
C        1.8684755240   -1.1259016598   -0.1423056399
C        2.7633789526   -1.8466281659    0.6560121882
C        2.7082077333   -1.7317931572    2.0510529156
C        1.7676188039   -0.9061614372    2.6526979286
C        0.8706339687   -0.1813077466    1.8528038236
C        0.9201931908   -0.2911093149    0.4579934312
H        0.2238369161    0.2723221327   -0.1565537117
H        0.1363160537    0.4686378828    2.3215826897
C        1.7235761227   -0.7864501195    4.1403386036
O        2.3327034541    0.0170083868    4.7929140153
O        0.9060190407   -1.6989713362    4.7090252560
H        0.9623960679   -1.5211175687    5.6587941555
H        3.4062956542   -2.2911159637    2.6686159175
H        3.5024428845   -2.4949347012    0.1939343910
15   

H        1.9514649114   -1.2011995036   -1.2237352107
C        1.8846902322   -1.1143214667   -0.1427152209
C        2.7255968315   -1.8757491352    0.6763720606
C        2.6387926198   -1.7617487095    2.0698606993
C        1.7112838138   -0.9050314319    2.6491887415
C        0.8813310404   -0.1260150041    1.8284329841
C        0.9626092479   -0.2353228317    0.4350648029
H        0.3135597637    0.3652818110   -0.1958566527
H        0.1751525076    0.5660347031    2.2801703522
C        1.6627618949   -0.7599451383    4.1322855712
O        2.0749866191    0.1840223909    4.7509295601
O        1.1553131213   -1.8515619246    4.7458396221
H        1.1933884464   -1.6420403007    5.6901006342
H        3.2972820459   -2.3501702085    2.7037195607
H        3.4482951172   -2.5539637145    0.2316805994
15   

H        1.9884390173   -1.1981663457   -1.2223627779
C        1.8991899223   -1.1130835028   -0.1428238008
C        2.6940577973   -1.9055251710    0.6924247544
C        2.5786775198   -1.7936236373    2.0840394834
C        1.6632464380   -0.9118247996    2.6466060274
C        0.8864810901   -0.0964131251    1.8086645233
C        0.9964016092   -0.2033858453    0.4171694066
H        0.3858389987    0.4242434269   -0.2257662847
H        0.1995396073    0.6233052030    2.2471979480
C        1.5962172013   -0.7529411735    4.1231769655
O        1.7812278409    0.2768966197    4.7161987547
O        1.3883461156   -1.9219425813    4.7700344306
H        1.3885024793   -1.6850548539    5.7086979072
H        3.2045983873   -2.4055511557    2.7287754582
H        3.4041944202   -2.6057712573    0.2618750023
15   

H        2.0149315109   -1.1944360201   -1.2224247779
C        1.9110673663   -1.1123789568   -0.1439589532
C        2.6681612383   -1.9321750998    0.6994125381
C        2.5343907127   -1.8244161650    2.0897965145
C        1.6372851376   -0.9181310888    2.6452160037
C        0.8985796301   -0.0768995517    1.7970061029
C        1.0272173814   -0.1795075501    0.4069586028
H        0.4454682078    0.4694567440   -0.2415052380
H        0.2252789256    0.6605290655    2.2278617842
C        1.5411137294   -0.7595713251    4.1160844188
O        1.4896788121    0.2955801061    4.6937603843
O        1.5887118671   -1.9344689341    4.7856507649
H        1.5334096590   -1.6844647198    5.7193958073
H        3.1353330733   -2.4599816572    2.7355714504
H        3.3639672774   -2.6510263508    0.2761816587
15   

H        2.0401968031   -1.1866165636   -1.2236655078
C        1.9256941818   -1.1083636447   -0.1459942808
C        2.6489176767   -1.9537232115    0.7011597361
C        2.5017324774   -1.8517468180    2.0907549812
C        1.6270710150   -0.9213588956    2.6441673895
C        0.9177714386   -0.0597306328    1.7893952691
C        1.0602964817   -0.1566431887    0.4005045060
H        0.5019778719    0.5104156874   -0.2502097410
H        0.2537898596    0.6897962055    2.2143288465
C        1.4956788248   -0.7734899047    4.1107672385
O        1.2113706235    0.2520767369    4.6764130352
O        1.7686307937   -1.9065713542    4.7996538693
H        1.6502099139   -1.6594060424    5.7283728967
H        3.0806724796   -2.5125272963    2.7312405261
H        3.3291006405   -2.6893795453    0.2814062401
15   

H        2.0648546033   -1.1740152187   -1.2244974967
C        1.9406966845   -1.1009767513   -0.1475280415
C        2.6308866647   -1.9717980076    0.7007474081
C        2.4713770199   -1.8775965807    2.0896518253
C        1.6211151905   -0.9241232014    2.6435138155
C        0.9377966597   -0.0436201381    1.7849997398
C        1.0931463203   -0.1330593672    0.3971575322
H        0.5565642022    0.5511417325   -0.2540590632
H        0.2815476972    0.7154938253    2.2051743352
C        1.4546560578   -0.7934231178    4.1070663019
O        0.9511230189    0.1524037904    4.6606374231
O        1.9392658393   -1.8416819832    4.8143220749
H        1.7607573766   -1.6121209514    5.7380121103
H        3.0265197972   -2.5652936761    2.7226411255
H        3.2946105791   -2.7230502623    0.2822494009
15   

H        2.1248479158   -1.0886097341   -1.2217068574
C        1.9689205188   -1.0630879428   -0.1466950733
C        3.0551203825   -1.1833803744    0.7247592565
C        2.8547364967   -1.1505359610    2.1112145931
C        1.5758198306   -0.9981885517    2.6410089043
C        0.4868535435   -0.8776673357    1.7576335766
C        0.6811191520   -0.9097913518    0.3722463142
H       -0.1692853444   -0.8155215305   -0.2971323537
H       -0.5184873239   -0.7580303688    2.1557491150
C        1.3386134267   -0.9604966406    4.0999134626
O        0.2563915372   -0.8311031359    4.6169866066
O        2.4596394760   -1.0856136711    4.8494203499
H        2.1436198195   -1.0425286806    5.7637993745
H        3.7224387045   -1.2469562359    2.7588657536
H        4.0585607713   -1.3027877659    0.3261256663
