15   

H        2.1271729962   -1.0610754954   -1.2209014148
C        1.9701895663   -1.0475290530   -0.1458266686
C        3.0517428500   -1.2090817921    0.7250384913
C        2.8496089340   -1.1921315220    2.1114825651
C        1.5750277870   -1.0076546219    2.6408534493
C        0.4892325363   -0.8565614842    1.7591072365
C        0.6850929243   -0.8725806227    0.3736033711
H       -0.1620506518   -0.7512108053   -0.2955391445
H       -0.5139330307   -0.7261668192    2.1592566153
C        1.3363210858   -1.0078906867    4.1002309048
O        0.2532050539   -1.1124340541    4.6203452440
O        2.4619734572   -0.8943814225    4.8444932887
H        2.1478007687   -0.9106859802    5.7603516729
H        3.7101016938   -1.3264421627    2.7620970034
H        4.0522053983   -1.3500596955    0.3259772338
15   

H        2.1246496544   -1.0335580097   -1.2187924265
C        1.9683909349   -1.0309820796   -0.1435314242
C        3.0460755609   -1.2339522956    0.7240822899
C        2.8439259868   -1.2315912278    2.1105048385
C        1.5758537613   -1.0141836917    2.6412106212
C        0.4920515373   -0.8312663900    1.7648206968
C        0.6874150049   -0.8324167073    0.3789798888
H       -0.1568486768   -0.6835756527   -0.2882392867
H       -0.5072636095   -0.6894662580    2.1703975501
C        1.3412581693   -1.0533494998    4.1018494937
O        0.3073782575   -1.3862224383    4.6242210238
O        2.4261758723   -0.7149027083    4.8376133027
H        2.1290458855   -0.7916191902    5.7560149825
H        3.6941599569   -1.4007061277    2.7666499871
H        4.0421698486   -1.3970807478    0.3225634534
15   

H        2.1177449036   -1.0080962166   -1.2164917967
C        1.9639255146   -1.0165762451   -0.1409094683
C        3.0381742067   -1.2615943596    0.7207678669
C        2.8382729610   -1.2736887314    2.1073345668
C        1.5785464729   -1.0245832249    2.6418253198
C        0.4961199509   -0.8062762241    1.7737746477
C        0.6889192248   -0.7926001070    0.3874307123
H       -0.1526107255   -0.6144353841   -0.2760274956
H       -0.4980997809   -0.6504512241    2.1861060362
C        1.3535898644   -1.0994205047    4.1052576715
O        0.4186272776   -1.6454773707    4.6319184925
O        2.3541362331   -0.5472897472    4.8298454183
H        2.0881488367   -0.6791248846    5.7514258406
H        3.6787888680   -1.4750765702    2.7669377841
H        4.0284918224   -1.4467005321    0.3145360787
15   

H        2.1067605218   -0.9837239037   -1.2155332412
C        1.9581514018   -1.0062205584   -0.1394207357
C        3.0296493942   -1.2973250585    0.7117954513
C        2.8360243652   -1.3272288295    2.0988935466
C        1.5870257975   -1.0499551465    2.6422064415
C        0.5058422034   -0.7862417928    1.7866925352
C        0.6923847102   -0.7543510128    0.3996203612
H       -0.1466320387   -0.5407499832   -0.2565023441
H       -0.4808916653   -0.6098394532    2.2079206792
C        1.3771931461   -1.1498765936    4.1105319093
O        0.5893773061   -1.8830917488    4.6473898020
O        2.2370597887   -0.3838115976    4.8190324137
H        2.0116248053   -0.5557878084    5.7446717749
H        3.6699136858   -1.5622553813    2.7556338284
H        4.0120832281   -1.5040851868    0.2969633119
15   

H        2.0896330995   -0.9507904943   -1.2157595586
C        1.9514577480   -0.9933123847   -0.1388610813
C        3.0217381032   -1.3390446637    0.6934664447
C        2.8415350846   -1.3943120820    2.0815637010
C        1.6068433651   -1.0943036303    2.6431602318
C        0.5275842477   -0.7671068222    1.8080133766
C        0.7008689498   -0.7096707050    0.4199561975
H       -0.1361615085   -0.4497454561   -0.2218162920
H       -0.4463801872   -0.5603677299    2.2442928933
C        1.4183744819   -1.2028470139    4.1181755102
O        0.8236908824   -2.0837035743    4.6786892923
O        2.0538797193   -0.2230815646    4.7977142051
H        1.8716599848   -0.4128220676    5.7292572584
H        3.6732241509   -1.6688434664    2.7254200980
H        3.9926313413   -1.5674539028    0.2631016464
15   

H        2.0780868454   -0.9098247357   -1.2148586034
C        1.9525835095   -0.9734706168   -0.1374505022
C        3.0178275633   -1.3854871632    0.6707002810
C        2.8537545594   -1.4680159714    2.0594546257
C        1.6377601395   -1.1415041076    2.6452017903
C        0.5679591472   -0.7298468695    1.8353318174
C        0.7247766879   -0.6452632056    0.4467129399
H       -0.1065118708   -0.3263709339   -0.1756232223
H       -0.3858865315   -0.4777536584    2.2914383641
C        1.4730089987   -1.2405544486    4.1258747246
O        1.1012532053   -2.2147593928    4.7218263265
O        1.7928661104   -0.0917309801    4.7602209369
H        1.6470278296   -0.2803551424    5.6983165695
H        3.6824125386   -1.7907054751    2.6845548124
H        3.9726393983   -1.6427916946    0.2210765646
15   

H        2.0619300072   -0.8790494901   -1.2142884223
C        1.9514688768   -0.9557138218   -0.1360818993
C        3.0114372343   -1.4250709809    0.6471003790
C        2.8664447572   -1.5247666222    2.0368281587
C        1.6710777304   -1.1693990617    2.6487218174
C        0.6126023819   -0.6836220124    1.8642054580
C        0.7500734120   -0.5820558849    0.4747114169
H       -0.0749029631   -0.2118188370   -0.1272487029
H       -0.3175967735   -0.3865710181    2.3416221098
C        1.5383119488   -1.2544280516    4.1318157707
O        1.4097146879   -2.2666544531    4.7662480239
O        1.5123009962   -0.0369476162    4.7172107063
H        1.4075070192   -0.2213765843    5.6616544554
H        3.6920747485   -1.8895828726    2.6426977163
H        3.9478265365   -1.7126185157    0.1774794296
15   

H        2.0487282082   -0.8846211617   -1.2172488998
C        1.9501732522   -0.9588596485   -0.1377204858
C        3.0022849855   -1.4686812138    0.6303329483
C        2.8726607065   -1.5653425127    2.0217252364
C        1.6979208442   -1.1710126480    2.6518016138
C        0.6503152046   -0.6382454524    1.8810806538
C        0.7728984977   -0.5398083570    0.4900044814
H       -0.0447276288   -0.1354386480   -0.0998981862
H       -0.2602933616   -0.3018335735    2.3702924060
C        1.5964290045   -1.2427548451    4.1339544843
O        1.7085418184   -2.2410864406    4.7950790157
O        1.2701428371   -0.0543671506    4.6902017999
H        1.2142083953   -0.2364197752    5.6393666053
H        3.6927049608   -1.9612305185    2.6159929700
H        3.9210358393   -1.7898442279    0.1478198253
15   

H        2.0333482394   -0.9131398489   -1.2227800040
C        1.9445723413   -0.9746810790   -0.1416053864
C        2.9880041287   -1.5117232690    0.6193108942
C        2.8713850995   -1.5919213787    2.0127836059
C        1.7174240984   -1.1528007744    2.6543384806
C        0.6776825489   -0.5944717402    1.8881686879
C        0.7885130832   -0.5127326075    0.4950170303
H       -0.0224194585   -0.0880491231   -0.0898372125
H       -0.2191296967   -0.2253041114    2.3794632673
C        1.6441545613   -1.2154775829    4.1344176728
O        1.9849076384   -2.1537229375    4.8074671940
O        1.0718750520   -0.1194487691    4.6837195445
H        1.0708124005   -0.2971128370    5.6354745712
H        3.6854929420   -2.0098007125    2.6006347338
H        3.8902879199   -1.8671374044    0.1297716610
15   

H        2.0177215356   -0.9530386216   -1.2296521055
C        1.9381291692   -0.9963333278   -0.1468787867
C        2.9725888760   -1.5530640882    0.6115626691
C        2.8683765349   -1.6096800419    2.0070876944
C        1.7361895746   -1.1234446828    2.6558132027
C        0.7023971111   -0.5507017849    1.8890972582
C        0.8022461250   -0.4928421922    0.4939286868
H       -0.0027079766   -0.0551391450   -0.0896011470
H       -0.1835729141   -0.1515383681    2.3766152351
C        1.6838699788   -1.1792633719    4.1339537702
O        2.2303402313   -2.0124054923    4.8120087637
O        0.9059727714   -0.2185082276    4.6851733993
H        0.9568714407   -0.3830071102    5.6380261034
H        3.6777040717   -2.0441232027    2.5899185203
H        3.8587785517   -1.9425879737    0.1185777897
15   

H        1.9967624907   -0.9985486378   -1.2355066711
C        1.9271956431   -1.0218993056   -0.1514282898
C        2.9532646432   -1.5945606146    0.6058808629
C        2.8626774277   -1.6251127168    2.0031200482
C        1.7537231703   -1.0925346466    2.6572694761
C        0.7245636045   -0.5100195279    1.8889142565
C        0.8119453474   -0.4783031205    0.4920856462
H        0.0122841789   -0.0302800950   -0.0909041201
H       -0.1498626153   -0.0810753220    2.3718313625
C        1.7167859944   -1.1395533839    4.1348693982
O        2.4373567390   -1.8226228019    4.8195694351
O        0.7649311962   -0.3497072138    4.6851519054
H        0.8588006307   -0.4876086498    5.6390228199
H        3.6683852983   -2.0734524428    2.5805920334
H        3.8229865000   -2.0170558258    0.1107123052
15   

H        1.9716838207   -1.0475018183   -1.2388639913
C        1.9132133672   -1.0499014604   -0.1538816143
C        2.9316319787   -1.6363231531    0.6029275433
C        2.8559176633   -1.6392787990    2.0013721641
C        1.7711758701   -1.0614683951    2.6583320889
C        0.7462428416   -0.4710201537    1.8892632730
C        0.8193502646   -0.4666598834    0.4912754829
H        0.0247347144   -0.0093774151   -0.0914311442
H       -0.1134979890   -0.0118416236    2.3706635497
C        1.7452535820   -1.0947464362    4.1362315885
O        2.6010901807   -1.5895811598    4.8276185173
O        0.6531705583   -0.5093032157    4.6816360790
H        0.7779856691   -0.6089903781    5.6367401868
H        3.6566943147   -2.0997824002    2.5761517942
H        3.7841533898   -2.0910886257    0.1064277976
15   

H        1.9428082852   -1.0963257663   -1.2386207480
C        1.8962408507   -1.0779958115   -0.1532147308
C        2.9074102463   -1.6776606878    0.6032335746
C        2.8472829559   -1.6530115717    2.0022310415
C        1.7877701653   -1.0308317694    2.6592356365
C        0.7669194206   -0.4332575691    1.8913605400
C        0.8243409290   -0.4558363251    0.4928024691
H        0.0346411674    0.0102407240   -0.0896116043
H       -0.0752432658    0.0541578098    2.3761404155
C        1.7680236527   -1.0466950957    4.1378279895
O        2.7114770644   -1.3258307833    4.8353945750
O        0.5776514621   -0.6891163262    4.6743416104
H        0.7186256935   -0.7416484108    5.6309317239
H        3.6406252544   -2.1237622547    2.5789886696
H        3.7419411395   -2.1639322810    0.1060330675
15   

H        1.9153640620   -1.1385419020   -1.2355605056
C        1.8803414086   -1.1010626347   -0.1502144070
C        2.8824905165   -1.7163504034    0.6063618038
C        2.8371716160   -1.6662333475    2.0052864486
C        1.8045831785   -0.9994947031    2.6597614547
C        0.7894773046   -0.3928857792    1.8941242586
C        0.8314071454   -0.4399933863    0.4956123154
H        0.0476217897    0.0360741916   -0.0866954299
H       -0.0337941413    0.1199069056    2.3852615958
C        1.7840533419   -0.9976994261    4.1397371598
O        2.7616547916   -1.0494982360    4.8426783265
O        0.5419984114   -0.8781429808    4.6641638960
H        0.6825570181   -0.8801506019    5.6221921206
H        3.6205535825   -2.1476980963    2.5866194677
H        3.6978777757   -2.2341902404    0.1092897665
15   

H        1.8897884451   -1.1733117927   -1.2310667738
C        1.8653334526   -1.1182844477   -0.1461792305
C        2.8555595591   -1.7517524030    0.6116652847
C        2.8236111673   -1.6785019759    2.0100256110
C        1.8194261163   -0.9679417384    2.6602269800
C        0.8133159628   -0.3486616296    1.8959988929
C        0.8408643839   -0.4178542719    0.4980397680
H        0.0649307565    0.0702586630   -0.0847937426
H        0.0095144869    0.1890701081    2.3926628335
C        1.7934632355   -0.9448832003    4.1430370010
O        2.7502839752   -0.7666230362    4.8516483970
O        0.5468180658   -1.0710147846    4.6534115693
H        0.6708104988   -1.0220405108    5.6123853317
H        3.5954065176   -2.1730651982    2.5954338573
H        3.6506068759   -2.3015120274    0.1159354874
15   

H        1.8737394517   -1.2017560416   -1.2273502471
C        1.8548441137   -1.1316264556   -0.1432234844
C        2.8264986808   -1.7872613686    0.6201856159
C        2.8015836751   -1.6941567534    2.0176222523
C        1.8244835839   -0.9416422295    2.6591073548
C        0.8359084153   -0.3018934934    1.8917938548
C        0.8555569390   -0.3900062606    0.4947757770
H        0.0933598635    0.1148181221   -0.0919272662
H        0.0524911366    0.2650286534    2.3883476787
C        1.7910699962   -0.8900048866    4.1451899715
O        2.6770102737   -0.4859195492    4.8509845332
O        0.5974158141   -1.2735577887    4.6513677363
H        0.6959095008   -1.1757378257    5.6094470131
H        3.5577835492   -2.2057506221    2.6082045878
H        3.6011895872   -2.3695058732    0.1293566653
15   

H        1.8759943148   -1.2160234985   -1.2250215926
C        1.8528325335   -1.1344742758   -0.1417757120
C        2.7940656130   -1.8190166056    0.6345525878
C        2.7635605273   -1.7112254378    2.0308891714
C        1.8088804705   -0.9196584023    2.6566764989
C        0.8545996610   -0.2450485145    1.8781747359
C        0.8795040730   -0.3474880724    0.4821827798
H        0.1425634561    0.1822971457   -0.1146954563
H        0.0943203686    0.3599501209    2.3654000160
C        1.7699864762   -0.8345619914    4.1451889787
O        2.5399579867   -0.2183024690    4.8314923067
O        0.7111691251   -1.4888469726    4.6709640315
H        0.7857291344   -1.3482303146    5.6257611716
H        3.4961621304   -2.2446379846    2.6313886702
H        3.5494041442   -2.4346843925    0.1544804816
15   

H        1.9106464667   -1.2132796981   -1.2245240916
C        1.8684754151   -1.1259017629   -0.1423056290
C        2.7633788853   -1.8466282288    0.6560121899
C        2.7082077333   -1.7317931572    2.0510529156
C        1.7676188039   -0.9061614372    2.6526979286
C        0.8706339518   -0.1813077589    1.8528038342
C        0.9201931206   -0.2911093791    0.4579934473
H        0.2238368243    0.2723220650   -0.1565536817
H        0.1363160598    0.4686378849    2.3215827132
C        1.7235761227   -0.7864501195    4.1403386036
O        2.3327034541    0.0170083868    4.7929140153
O        0.9060190266   -1.6989713183    4.7090252608
H        0.9623962803   -1.5211177213    5.6587941756
H        3.4062956782   -2.2911159402    2.6686159115
H        3.5024427839   -2.4949348057    0.1939343856
15   

H        1.9514608174   -1.2012024748   -1.2237354327
C        1.8846854754   -1.1143254977   -0.1427153977
C        2.7255928584   -1.8757526379    0.6763715813
C        2.6387882206   -1.7617532588    2.0698602660
C        1.7112776663   -0.9050374246    2.6491887030
C        0.8813241096   -0.1260216684    1.8284331012
C        0.9626030456   -0.2353285348    0.4350648886
H        0.3135532176    0.3652758797   -0.1958564289
H        0.1751448857    0.5660272804    2.2801705726
C        1.6627576143   -0.7599503163    4.1322825295
O        2.0749834754    0.1840236460    4.7509227253
O        1.1553111096   -1.8515652086    4.7458418698
H        1.1933969605   -1.6420438135    5.6901025342
H        3.2972787258   -2.3501739059    2.7037188020
H        3.4482923430   -2.5539657306    0.2316798060
15   

H        1.9884322998   -1.1981718134   -1.2223635710
C        1.8991830638   -1.1130899947   -0.1428245247
C        2.6940529003   -1.9055303913    0.6924233234
C        2.5786730363   -1.7936296870    2.0840381168
C        1.6632396550   -0.9118325715    2.6466059170
C        0.8864723296   -0.0964226117    1.8086645120
C        0.9963928482   -0.2033946449    0.4171693405
H        0.3858290222    0.4242338531   -0.2257659527
H        0.1995298777    0.6232946878    2.2471981353
C        1.5962129775   -0.7529458054    4.1231748595
O        1.7812220763    0.2768979128    4.7161909590
O        1.3883456660   -1.9219443253    4.7700387155
H        1.3885162561   -1.6850538389    5.7087015110
H        3.2045959719   -2.4055556349    2.7287735606
H        3.4041910860   -2.6057745064    0.2618729416
15   

H        2.0149215724   -1.1944442692   -1.2224271128
C        1.9110579353   -1.1123891246   -0.1439610918
C        2.6681555309   -1.9321834030    0.6994086753
C        2.5343863698   -1.8244260447    2.0897928548
C        1.6372779206   -0.9181442789    2.6452156359
C        0.8985684212   -0.0769154431    1.7970061474
C        1.0272051234   -0.1795217073    0.4069584281
H        0.4454532771    0.4694415205   -0.2415040875
H        0.2252660383    0.6605112505    2.2278625552
C        1.5411089085   -0.7595789055    4.1160822823
O        1.4896697931    0.2955813614    4.6937461185
O        1.5887154904   -1.9344695074    4.7856601489
H        1.5334256661   -1.6844557879    5.7194033946
H        3.1353320879   -2.4599893197    2.7355668284
H        3.3639638920   -2.6510315375    0.2761763200
15   

H        2.0401905858   -1.1866234735   -1.2236677223
C        1.9256881733   -1.1083725097   -0.1459963311
C        2.6489149119   -1.9537306306    0.7011561805
C        2.5017305012   -1.8517560583    2.0907516065
C        1.6270662862   -0.9213713044    2.6441669162
C        0.9177631600   -0.0597452018    1.7893951403
C        1.0602876277   -0.1566557948    0.4005041944
H        0.5019665790    0.5104022112   -0.2502088583
H        0.2537795946    0.6897796718    2.2143291489
C        1.4956755607   -0.7734985858    4.1107632085
O        1.2113619973    0.2520745689    4.6764041840
O        1.7686333335   -1.9065748493    4.7996560113
H        1.6502193110   -1.6594029835    5.7283742033
H        3.0806733291   -2.5125348633    2.7312363318
H        3.3291001556   -2.6893841135    0.2814013872
15   

H        2.0648548215   -1.1740145172   -1.2244986405
C        1.9406969120   -1.1009782753   -0.1475290353
C        2.6308887937   -1.9717996086    0.7007446867
C        2.4713793375   -1.8776009104    2.0896492677
C        1.6211153547   -0.9241296484    2.6435138879
C        0.9377949525   -0.0436268676    1.7850007077
C        1.0931446737   -0.1330636272    0.3971583565
H        0.5565611048    0.5511375059   -0.2540570126
H        0.2815444019    0.7154854361    2.2051758735
C        1.4546566499   -0.7934309211    4.1070616868
O        0.9511186087    0.1524007142    4.6606327138
O        1.9392676278   -1.8416878874    4.8143195450
H        1.7607606939   -1.6121244840    5.7380093291
H        3.0265236993   -2.5652979208    2.7226372964
H        3.2946141597   -2.7230497472    0.2822451853
15   

H        2.0869133884   -1.1573567575   -1.2238971938
C        1.9531978384   -1.0915837182   -0.1476030366
C        2.6109762855   -1.9883130897    0.6991181614
C        2.4389648236   -1.9040534453    2.0872114912
C        1.6135344168   -0.9298471498    2.6431869150
C        0.9544077555   -0.0303193439    1.7846256732
C        1.1225171772   -0.1098426392    0.3977283301
H        0.6071071065    0.5915444222   -0.2523109460
H        0.3061436807    0.7364525452    2.2033545152
C        1.4158270656   -0.8205743991    4.1043664813
O        0.7150869652    0.0001981621    4.6434598662
O        2.0995468511   -1.7382239331    4.8286323104
H        1.8698878980   -1.5386220514    5.7479960397
H        2.9660070504   -2.6178585341    2.7151962424
H        3.2580459047   -2.7535749377    0.2799109483
