23   

H        0.7454056070   -0.9147736271   -0.9920180548
C        1.3241366514   -0.9530021381   -0.0734989042
C        2.5135436633   -0.2252059416    0.0357274619
C        3.2559928908   -0.2746201294    1.2220670892
C        2.8321126322   -1.0557515934    2.2950427948
C        1.6214002463   -1.7659058375    2.1900172462
C        0.8750329665   -1.7204571098    1.0060841848
H       -0.0566268390   -2.2739972832    0.9299810188
H        1.2442862752   -2.3421280261    3.0285231533
O        3.6081461648   -1.0051117098    3.4201795793
C        3.4732645931   -1.9429091376    4.4135714198
C        3.4034714035   -1.5139314500    5.7430142384
C        3.3074860001   -2.4389846859    6.7895334646
C        3.2886669279   -3.8091641348    6.5090883941
C        3.3741499163   -4.2514302946    5.1846924980
C        3.4745267273   -3.3211116319    4.1428350752
H        3.5622009290   -3.6638322069    3.1164785118
H        3.3708266608   -5.3153341616    4.9649710434
H        3.2160543930   -4.5286786026    7.3197174244
H        3.2528084441   -2.0918094811    7.8175046748
H        3.4275836721   -0.4492396489    5.9528208147
H        4.1757618393    0.2943746810    1.3148724009
H        2.8598734735    0.3807782182   -0.7967455938
23   

H        0.8904469409   -1.0962414819   -1.0745322177
C        1.4009953253   -1.0630100470   -0.1162421493
C        2.6070820947   -0.3654124691    0.0111157348
C        3.2613038217   -0.3216306783    1.2487384975
C        2.7305263008   -0.9784310310    2.3549179017
C        1.5074023670   -1.6601837430    2.2291153002
C        0.8480068697   -1.7083674357    0.9949088777
H       -0.0953803214   -2.2392222446    0.9031436951
H        1.0622484249   -2.1417655098    3.0941020923
O        3.4132505447   -0.8554734601    3.5362347326
C        3.3807545704   -1.8605270130    4.4669981845
C        3.3881571002   -1.5140901332    5.8223904481
C        3.3921112441   -2.5005871745    6.8157016012
C        3.3957920985   -3.8518188042    6.4558135665
C        3.4037866082   -4.2132628706    5.1047398892
C        3.4043123317   -3.2219132542    4.1156146577
H        3.4335069638   -3.5092035925    3.0691959250
H        3.4176158744   -5.2621964316    4.8224214973
H        3.4004283405   -4.6190705892    7.2248241562
H        3.3967943220   -2.2153156708    7.8639535817
H        3.3931489624   -0.4633927830    6.0948129628
H        4.1933240575    0.2242987982    1.3564166260
H        3.0342943540    0.1453203288   -0.8472750016
23   

H        1.0332026307   -1.2417500267   -1.1286135838
C        1.4743909810   -1.1521856716   -0.1399618140
C        2.7043628583   -0.5045790255    0.0224116718
C        3.2687905396   -0.3873324794    1.2990342850
C        2.6216155500   -0.9181706946    2.4088511776
C        1.3809269315   -1.5548481131    2.2463573060
C        0.8096698274   -1.6765812544    0.9739707613
H       -0.1500667777   -2.1712309553    0.8537408790
H        0.8618726308   -1.9459226840    3.1160082424
O        3.2092997894   -0.7468114320    3.6387170603
C        3.2888725991   -1.7987213329    4.5107020156
C        3.3762908818   -1.5145855800    5.8780459407
C        3.4876642470   -2.5426816109    6.8215509313
C        3.5178963900   -3.8751448150    6.3996551850
C        3.4441656567   -4.1757259001    5.0360040976
C        3.3371219495   -3.1431212325    4.0960098318
H        3.3024795783   -3.3911246872    3.0398946218
H        3.4769120890   -5.2098288638    4.7048033830
H        3.6053342461   -4.6747775262    7.1297206585
H        3.5539425214   -2.3038749841    7.8792816338
H        3.3584062218   -0.4780166942    6.1996395233
H        4.2191675734    0.1192490065    1.4346852228
H        3.2195348391   -0.0896071511   -0.8393377364
23   

H        1.1710520582   -1.3493706197   -1.1665391509
C        1.5409979876   -1.2205125282   -0.1533007103
C        2.7947318015   -0.6380420795    0.0663169075
C        3.2668461482   -0.4694716523    1.3743858798
C        2.5016328946   -0.8815024664    2.4576387095
C        1.2427552862   -1.4582242877    2.2379561909
C        0.7620886312   -1.6309163844    0.9344265310
H       -0.2143653086   -2.0775682550    0.7692288892
H        0.6436736556   -1.7646390378    3.0898983358
O        2.9927143750   -0.6802677608    3.7294961155
C        3.1971192939   -1.7570980397    4.5470329876
C        3.3673588447   -1.5134140629    5.9146378868
C        3.5981841567   -2.5630075918    6.8115446994
C        3.6643629860   -3.8780400888    6.3426349439
C        3.5053037629   -4.1393364532    4.9784067737
C        3.2780206977   -3.0855404693    4.0843517361
H        3.1741292792   -3.3103238464    3.0277158164
H        3.5630402285   -5.1597952519    4.6103740086
H        3.8438770257   -4.6944729446    7.0363520391
H        3.7278143985   -2.3541931941    7.8697444587
H        3.3190418462   -0.4902356345    6.2737881938
H        4.2355287397   -0.0143205251    1.5552487252
H        3.3998356099   -0.3136150529   -0.7756042992
23   

H        1.2922781670   -1.4130552026   -1.1942597043
C        1.5945688124   -1.2653821070   -0.1613318780
C        2.8726638213   -0.7754343350    0.1319148466
C        3.2569274528   -0.5817457461    1.4650252377
C        2.3792581299   -0.8759942387    2.4997558491
C        1.0993173230   -1.3629284075    2.2068528230
C        0.7048410294   -1.5597661125    0.8780181091
H       -0.2899051043   -1.9356263752    0.6555875511
H        0.4178199259   -1.5816107060    3.0230281683
O        2.7763975060   -0.6615373136    3.8058168943
C        3.1100423476   -1.7387854064    4.5777074240
C        3.3600214485   -1.5100495303    5.9357673670
C        3.7150147771   -2.5590176273    6.7918978974
C        3.8254799005   -3.8592926879    6.2916864551
C        3.5837596122   -4.1065436535    4.9371741458
C        3.2306945690   -3.0537778175    4.0836318767
H        3.0572269636   -3.2729827371    3.0350469158
H        3.6722058846   -5.1157667168    4.5450498294
H        4.1009348439   -4.6753289915    6.9536709732
H        3.9051415083   -2.3612111780    7.8430390960
H        3.2749083969   -0.4985113755    6.3201517452
H        4.2439758945   -0.1982018213    1.7034915668
H        3.5646559084   -0.5420776789   -0.6724114766
23   

H        1.3924734896   -1.4205556460   -1.2229973370
C        1.6320683231   -1.2789813732   -0.1729124455
C        2.9283720953   -0.9125563664    0.2073977323
C        3.2312729205   -0.7256316030    1.5622030614
C        2.2550136951   -0.9063713090    2.5332535764
C        0.9579979803   -1.2682439232    2.1527769675
C        0.6435138596   -1.4568596558    0.8015297438
H       -0.3656105858   -1.7357768859    0.5114594278
H        0.2001477786   -1.3966913068    2.9192026040
O        2.5623336220   -0.6973713870    3.8655834004
C        3.0271774473   -1.7496860427    4.6027939375
C        3.3457332916   -1.5094240238    5.9444408245
C        3.8272032716   -2.5340042130    6.7676835065
C        3.9958740553   -3.8214716729    6.2509393193
C        3.6827861748   -4.0808454438    4.9134483672
C        3.2012859218   -3.0529020953    4.0930800441
H        2.9660525896   -3.2839002568    3.0591634575
H        3.8126930135   -5.0807946781    4.5092940619
H        4.3692493636   -4.6186419122    6.8874292044
H        4.0689026209   -2.3274656526    7.8064757902
H        3.2132353934   -0.5082435693    6.3422872732
H        4.2316892907   -0.4356760587    1.8678353983
H        3.6974592153   -0.7688532599   -0.5463327862
23   

H        1.4695610651   -1.3612227574   -1.2530542605
C        1.6541355131   -1.2520081987   -0.1881024288
C        2.9556596628   -1.0392190934    0.2801465291
C        3.1873825632   -0.8927257240    1.6537699941
C        2.1355825849   -0.9660103825    2.5593000623
C        0.8341037089   -1.1694532743    2.0886685846
C        0.5897156051   -1.3158927702    0.7178006938
H       -0.4238145506   -1.4730440506    0.3595874775
H        0.0164794774   -1.2082998244    2.8015154851
O        2.3599188786   -0.7863619076    3.9100945659
C        2.9515837649   -1.7920093952    4.6215555191
C        3.3287062970   -1.5179470859    5.9412915916
C        3.9322054751   -2.4975789268    6.7384355883
C        4.1646206416   -3.7734624458    6.2175364569
C        3.7903459118   -4.0671392217    4.9029887757
C        3.1849874136   -3.0845676465    4.1095155106
H        2.8957307244   -3.3420277783    3.0957350710
H        3.9663530866   -5.0592100458    4.4968668958
H        4.6325538367   -4.5357976797    6.8338970086
H        4.2178380042   -2.2655945409    7.7605773952
H        3.1446209186   -0.5264212154    6.3427853353
H        4.1921346483   -0.7175089169    2.0255939109
H        3.7842639502   -0.9817279872   -0.4201087740
23   

H        1.5571152516   -1.2514805785   -1.2811533890
C        1.6849429575   -1.1927834138   -0.2039734518
C        2.9690327150   -1.1335984615    0.3483128473
C        3.1278916672   -1.0515784318    1.7375720288
C        2.0202618173   -1.0403511385    2.5785525088
C        0.7378260370   -1.0861247514    2.0214863510
C        0.5655183326   -1.1666290291    0.6343385025
H       -0.4345825306   -1.2027997494    0.2115701364
H       -0.1233792746   -1.0551733638    2.6814308853
O        2.1594855016   -0.9173267980    3.9427086888
C        2.8742551736   -1.8559525836    4.6341462921
C        3.3113730480   -1.5252371944    5.9218225771
C        4.0319708508   -2.4416482862    6.6966352495
C        4.3209298303   -3.7102399573    6.1858427813
C        3.8839299568   -4.0609819809    4.9048904623
C        3.1603073508   -3.1418523793    4.1348148398
H        2.8157071147   -3.4405979230    3.1499936109
H        4.1008799717   -5.0488051092    4.5083270267
H        4.8793849922   -4.4236183404    6.7852211751
H        4.3632862684   -2.1669367321    7.6941137517
H        3.0809431592   -0.5404292884    6.3158770041
H        4.1217839769   -0.9907702891    2.1701821563
H        3.8415143539   -1.1440072872   -0.2989083759
23   

H        1.6455123004   -1.1066872428   -1.2970462538
C        1.7209473057   -1.1099847477   -0.2133557122
C        2.9728130374   -1.2021624501    0.4033599182
C        3.0648385358   -1.2001397592    1.8011625942
C        1.9216482188   -1.1192139658    2.5896811277
C        0.6733166529   -1.0129223834    1.9661453317
C        0.5670972343   -1.0122370911    0.5701725072
H       -0.4083005229   -0.9310057082    0.0987636649
H       -0.2158001393   -0.9289275147    2.5830739805
O        1.9774338566   -1.0773966080    3.9604567716
C        2.8004917724   -1.9338002600    4.6409067500
C        3.2885751371   -1.5285395915    5.8880433701
C        4.1108030915   -2.3696946764    6.6470357577
C        4.4491030255   -3.6364315165    6.1617102815
C        3.9586539826   -4.0616579729    4.9231086091
C        3.1329744899   -3.2177346473    4.1699245765
H        2.7413623986   -3.5682905602    3.2202175988
H        4.2119743303   -5.0492364932    4.5480596511
H        5.0860303964   -4.2915047970    6.7493004761
H        4.4816205065   -2.0388644622    7.6130931278
H        3.0173471958   -0.5465638916    6.2627159601
H        4.0397937096   -1.2520791274    2.2759463018
H        3.8736116289   -1.2674217401   -0.2003886637
23   

H        1.7216107189   -0.9193136496   -1.2958553948
C        1.7530542885   -0.9987597669   -0.2129110486
C        2.9661277328   -1.2379993484    0.4395155136
C        3.0023334008   -1.3349700702    1.8367392460
C        1.8416109538   -1.2050745085    2.5918023759
C        0.6331496067   -0.9540844170    1.9307753808
C        0.5819285470   -0.8535326753    0.5355100762
H       -0.3643083254   -0.6600290188    0.0381136438
H       -0.2712312572   -0.8375047141    2.5196155073
O        1.8198324502   -1.2691531579    3.9594192675
C        2.7351061854   -2.0303559421    4.6392950244
C        3.2514266373   -1.5391602585    5.8430774819
C        4.1596795429   -2.2937181943    6.5952097748
C        4.5544343468   -3.5582515016    6.1471266042
C        4.0342092329   -4.0686347992    4.9533261698
C        3.1224996161   -3.3110290885    4.2077651377
H        2.7042435582   -3.7203530493    3.2934367106
H        4.3307444709   -5.0552156633    4.6085179942
H        5.2578478169   -4.1461894707    6.7298963829
H        4.5527415241   -1.8982493596    7.5275963210
H        2.9342804977   -0.5604268901    6.1890522778
H        3.9559055034   -1.4973176889    2.3291518611
H        3.8818391010   -1.3410281511   -0.1358560325
23   

H        1.7902745553   -0.6988459436   -1.2699024770
C        1.7839001570   -0.8664088912   -0.1966200354
C        2.9551994772   -1.2495502236    0.4625530845
C        2.9434627946   -1.4617061092    1.8476556812
C        1.7763225379   -1.3006162907    2.5858365572
C        0.6095511660   -0.9099923176    1.9165196705
C        0.6058235276   -0.6938471522    0.5336912791
H       -0.3093569102   -0.3919215514    0.0322132885
H       -0.3023322435   -0.7768404061    2.4901068267
O        1.6871667386   -1.4872289960    3.9376186215
C        2.6775745770   -2.1426928733    4.6278190019
C        3.2054338306   -1.5524994809    5.7807260010
C        4.1851061261   -2.2086037308    6.5357267783
C        4.6390728005   -3.4716690226    6.1417239073
C        4.1069982291   -4.0793767751    4.9995079721
C        3.1238082630   -3.4199127268    4.2515985270
H        2.6946455515   -3.8978939515    3.3764027861
H        4.4500632674   -5.0648783043    4.6973780614
H        5.3979140807   -3.9831815462    6.7270561699
H        4.5873880642   -1.7385558924    7.4287380286
H        2.8410204959   -0.5762811689    6.0846423045
H        3.8728536371   -1.7355277787    2.3358359686
H        3.8769906199   -1.3767197986   -0.0980802210
23   

H        1.8757430629   -0.4481353684   -1.2108205658
C        1.8314983095   -0.7127378370   -0.1581745230
C        2.9538126256   -1.2459248392    0.4812002519
C        2.8933780583   -1.5853781075    1.8395981671
C        1.7272255550   -1.3988384477    2.5721455487
C        0.6081602478   -0.8632735485    1.9212615946
C        0.6527941309   -0.5196389478    0.5653243675
H       -0.2259641787   -0.1053707191    0.0791705619
H       -0.3060687736   -0.7183119484    2.4882112045
O        1.5787985326   -1.7170765742    3.8935702907
C        2.6223558989   -2.2650085450    4.6063642474
C        3.1618388661   -1.5604084283    5.6871398727
C        4.1947259902   -2.1129033486    6.4542217653
C        4.6904857750   -3.3839110477    6.1438185907
C        4.1479909974   -4.1027600423    5.0729639807
C        3.1115384147   -3.5464808932    4.3132508548
H        2.6742044567   -4.1046736242    3.4912284437
H        4.5250007278   -5.0935776860    4.8355642134
H        5.4907477878   -3.8149635487    6.7386987867
H        4.6060907454   -1.5566408523    7.2918313350
H        2.7646573783   -0.5788114074    5.9255290867
H        3.7881319080   -1.9821661494    2.3065199331
H        3.8754607693   -1.3942799389   -0.0744260001
23   

H        1.9175115323    0.5828563774   -0.7333566544
C        1.8596896337   -0.0475205973    0.1494420169
C        3.0281258670   -0.4999447222    0.7685987250
C        2.9491780108   -1.3154982890    1.9054003324
C        1.7184567079   -1.6837833968    2.4369700175
C        0.5535445901   -1.2304686204    1.8050047814
C        0.6163881918   -0.4158534963    0.6686166218
H       -0.2982605705   -0.0735502499    0.1927583528
H       -0.4093886966   -1.5210933104    2.2131234909
O        1.5616561253   -2.4767521522    3.5400320375
C        2.6132853564   -2.7248344845    4.3881123529
C        3.3656227788   -1.6867151303    4.9610188893
C        4.4063204146   -1.9707908357    5.8538792348
C        4.6907146082   -3.2976087011    6.1941233366
C        3.9326059572   -4.3367182794    5.6444236788
C        2.8966634185   -4.0461804014    4.7485228699
H        2.2976073298   -4.8459131819    4.3245808126
H        4.1427877210   -5.3675925758    5.9152899054
H        5.4938292809   -3.5207612973    6.8907640481
H        4.9865894199   -1.1612891618    6.2876784040
H        3.1296397807   -0.6569511652    4.7109970258
H        3.8723770900   -1.6708917498    2.3508952566
H        3.9982678355   -0.2246131912    0.3646234163
23   

H        1.8911999004    0.7614178504   -0.5934004010
C        1.8510667499    0.0583852672    0.2337655056
C        3.0282749242   -0.5037218529    0.7363916809
C        2.9709489663   -1.4135810957    1.8002560213
C        1.7541422265   -1.7636728425    2.3757197615
C        0.5793557512   -1.2046537111    1.8582884828
C        0.6211153356   -0.2952095569    0.7949562902
H       -0.2997305952    0.1305503523    0.4063919794
H       -0.3724210070   -1.4882641652    2.2963694621
O        1.6350649546   -2.6624066386    3.4018455627
C        2.6442717663   -2.8192894437    4.3161547545
C        3.3577351311   -1.7311712549    4.8484868684
C        4.3572181581   -1.9353067324    5.8078654136
C        4.6408748090   -3.2295057685    6.2560594237
C        3.9227130040   -4.3163604618    5.7474946776
C        2.9278519993   -4.1063729735    4.7851408695
H        2.3608236321   -4.9443722351    4.3921555792
H        4.1321623207   -5.3220010871    6.1011272857
H        5.4121831191   -3.3898826378    7.0040188060
H        4.9060363649   -1.0880695422    6.2093038076
H        3.1256376974   -0.7228293287    4.5200699324
H        3.8919362052   -1.8589074287    2.1630131481
H        3.9867041402   -0.2412710450    0.2973833044
23   

H        1.8651310512    0.9063520944   -0.4576485419
C        1.8482136074    0.1410799045    0.3131677649
C        3.0301678001   -0.5075585497    0.6850481466
C        3.0018014710   -1.4977495166    1.6755211028
C        1.8099839870   -1.8390651461    2.3067590222
C        0.6286842774   -1.1962160915    1.9199211438
C        0.6426049228   -0.2059228972    0.9304033818
H       -0.2812770407    0.2867414345    0.6406621918
H       -0.3034392917   -1.4787016996    2.3990152356
O        1.7398390305   -2.8297613475    3.2543646565
C        2.6832652642   -2.9007765900    4.2439544487
C        3.3466200601   -1.7702876661    4.7565833028
C        4.2834418389   -1.9008213988    5.7893339203
C        4.5565776430   -3.1611137517    6.3302291782
C        3.8904976241   -4.2884665235    5.8403060023
C        2.9581154378   -4.1527822734    4.8049737549
H        2.4331736030   -5.0235940397    4.4250475029
H        4.0923961706   -5.2682371724    6.2639909685
H        5.2796598313   -3.2635879292    7.1344129821
H        4.7923661500   -1.0218689431    6.1747956786
H        3.1278919672   -0.7837003135    4.3603462324
H        3.9180626352   -2.0126658063    1.9475202310
H        3.9680581208   -0.2496903097    0.2012355894
23   

H        1.8147252748    1.0175665569   -0.3345818999
C        1.8339753222    0.2015044687    0.3821990061
C        3.0168102806   -0.5130733208    0.6006706299
C        3.0343824323   -1.5684966724    1.5214148719
C        1.8884451866   -1.9080995121    2.2326381312
C        0.7044450794   -1.1998259842    2.0013488676
C        0.6734001596   -0.1438435677    1.0824925527
H       -0.2507550271    0.4008422081    0.9107453964
H       -0.1921850220   -1.4833358300    2.5434131610
O        1.8801281030   -2.9698738516    3.1093904983
C        2.7358442628   -2.9680013770    4.1762255272
C        3.3553621075   -1.8059179984    4.6767163761
C        4.2084880676   -1.8738587387    5.7853160488
C        4.4443777864   -3.1008067973    6.4128274525
C        3.8251717603   -4.2583502511    5.9328131512
C        2.9759735945   -4.1859386500    4.8223884110
H        2.4895626323   -5.0814535237    4.4486526096
H        3.9998033203   -5.2128464102    6.4213213112
H        5.1033146208   -3.1539922995    7.2748081797
H        4.6827345461   -0.9715089566    6.1607898246
H        3.1724779467   -0.8407743027    4.2152740276
H        3.9459321517   -2.1353713778    1.6839061159
H        3.9184699617   -0.2549685574    0.0523820648
23   

H        1.7555208316    1.0920879949   -0.2308382792
C        1.8180021166    0.2374593614    0.4368632244
C        2.9871573309   -0.5301017963    0.4864194771
C        3.0603164370   -1.6347906921    1.3445032317
C        1.9833399772   -1.9713183084    2.1559633731
C        0.8121774282   -1.2085860461    2.0982747081
C        0.7265621108   -0.1029255892    1.2434977592
H       -0.1864324462    0.4845330782    1.2036194179
H       -0.0300153791   -1.4887993175    2.7230619978
O        2.0440034588   -3.0811773316    2.9758567201
C        2.7958388670   -3.0200303647    4.1155164109
C        3.3682440814   -1.8330548601    4.6163503600
C        4.1209245407   -1.8476089068    5.7973498218
C        4.3066186849   -3.0447815193    6.4949568068
C        3.7384252481   -4.2267252866    6.0118423987
C        2.9884642558   -4.2080192758    4.8300882833
H        2.5437803704   -5.1234558488    4.4526765177
H        3.8767637292   -5.1588764038    6.5523358402
H        4.8888519764   -3.0561927446    7.4119582704
H        4.5582230071   -0.9267547070    6.1727370081
H        3.2317168396   -0.8884611359    4.0998062036
H        3.9594305931   -2.2419264253    1.3827254280
H        3.8345262324   -0.2738381166   -0.1432969853
23   

H        1.6866223735    1.1285972656   -0.1600275316
C        1.7980400024    0.2498610747    0.4688879901
C        2.9352247049   -0.5576650653    0.3504554275
C        3.0719439556   -1.6929280997    1.1595777730
C        2.0886537509   -2.0212854663    2.0836935622
C        0.9497243954   -1.2166010871    2.1989512281
C        0.8018889465   -0.0800355489    1.3947757963
H       -0.0853640809    0.5400985681    1.4868922359
H        0.1825705310   -1.4883867047    2.9171795314
O        2.2262352570   -3.1570691425    2.8609273579
C        2.8632166337   -3.0525850880    4.0651229258
C        3.3821301677   -1.8466834046    4.5799581980
C        4.0226284490   -1.8202339157    5.8251713081
C        4.1528587647   -2.9952184567    6.5712401988
C        3.6423368392   -4.1964351244    6.0717442861
C        3.0029130415   -4.2186050481    4.8267697158
H        2.6049670484   -5.1496509716    4.4356278256
H        3.7408598023   -5.1121614966    6.6478552703
H        4.6495172951   -2.9748974095    7.5371202785
H        4.4183157526   -0.8850753552    6.2112095684
H        3.2952592121   -0.9190279937    4.0235507729
H        3.9468501334   -2.3294586106    1.0719032095
H        3.7085959530   -0.3076750952   -0.3704162476
23   

H        1.5869151492    1.1277762896   -0.1339687017
C        1.7579107675    0.2424787230    0.4719488823
C        2.8533677224   -0.5877124265    0.2067551351
C        3.0676463559   -1.7310529237    0.9872698176
C        2.2020274400   -2.0457182430    2.0261434368
C        1.1040543816   -1.2174112705    2.2897413301
C        0.8803008139   -0.0725347995    1.5155538659
H        0.0259384357    0.5658729744    1.7223493770
H        0.4285732430   -1.4772348149    3.0988263213
O        2.4263777942   -3.1873780117    2.7715581355
C        2.9413489999   -3.0609525059    4.0310505525
C        3.4127420159   -1.8465175958    4.5702610398
C        3.9338484489   -1.7978747618    5.8693415400
C        3.9955244208   -2.9603165138    6.6434322906
C        3.5369575335   -4.1712571531    6.1176331449
C        3.0151280908   -4.2150659769    4.8195332977
H        2.6595750749   -5.1539958677    4.4069799380
H        3.5858542963   -5.0779895019    6.7139724569
H        4.4011339451   -2.9232847824    7.6504691716
H        4.2927231385   -0.8559318573    6.2743910225
H        3.3847947013   -0.9307640269    3.9886357221
H        3.9114344261   -2.3840213234    0.7875413419
H        3.5345624581   -0.3485046282   -0.6050357386
23   

H        0.4891279740    0.7355615554    0.0558799578
C        1.1400201862    0.0451216653    0.5847936143
C        2.5224807313    0.2632629821    0.6078445214
C        3.3592926093   -0.6314506478    1.2872456702
C        2.8268274861   -1.7329180638    1.9443525737
C        1.4428671902   -1.9553880293    1.9151104077
C        0.5981690519   -1.0670525281    1.2387927676
H       -0.4735022929   -1.2441081172    1.2182670729
H        1.0348537712   -2.8263658215    2.4186147100
O        3.6850261841   -2.6005602843    2.5848756586
C        3.5548326975   -2.7990483926    3.9314952396
C        2.8449570217   -1.9308084571    4.7844990257
C        2.7661827552   -2.1883888260    6.1588796852
C        3.4033104527   -3.3097351979    6.6986448248
C        4.1205332232   -4.1714805781    5.8640457261
C        4.1935600747   -3.9118092946    4.4905076192
H        4.7526647430   -4.5761713124    3.8391681932
H        4.6228973659   -5.0404248550    6.2796899011
H        3.3453994537   -3.5085257919    7.7650218716
H        2.2137586870   -1.5132734981    6.8063087294
H        2.3565179279   -1.0454978411    4.3902170100
H        4.4330468212   -0.4736765922    1.3066930177
H        2.9470675663    1.1228498265    0.0968917364
23   

H        0.4383217904    0.6060703453   -0.0502460329
C        1.1214735638   -0.0186656568    0.5181816140
C        2.5007452065    0.2080862222    0.4489025905
C        3.3792785426   -0.6016670128    1.1800623753
C        2.8923429132   -1.6256446709    1.9840033415
C        1.5094743390   -1.8611629119    2.0413101580
C        0.6242413710   -1.0565698937    1.3139188809
H       -0.4450090569   -1.2424330855    1.3627710979
H        1.1301269661   -2.6777827141    2.6478400713
O        3.8036292289   -2.4049459267    2.6546923382
C        3.5997517459   -2.7132526815    3.9725151242
C        2.8727475577   -1.8910075059    4.8540358993
C        2.7198164550   -2.2481845937    6.1995306620
C        3.3032848126   -3.4239941513    6.6815802634
C        4.0414108343   -4.2394917030    5.8187337477
C        4.1876194177   -3.8799390285    4.4737695626
H        4.7646831888   -4.5063112161    3.8008109557
H        4.5042557775   -5.1491909759    6.1908058555
H        3.1892124656   -3.7001931763    7.7259725165
H        2.1536304749   -1.6078492160    6.8700064843
H        2.4320981425   -0.9645662038    4.4995993589
H        4.4508372438   -0.4368335321    1.1268135900
H        2.8907064699    1.0082805172   -0.1738603919
23   

H        0.4048888925    0.4445817509   -0.1815895868
C        1.1100989334   -0.1031415669    0.4370887825
C        2.4840198064    0.1241443037    0.3023211170
C        3.3909172042   -0.5860188481    1.0990998930
C        2.9389220423   -1.5091387711    2.0372280141
C        1.5589610582   -1.7511091125    2.1550004641
C        0.6465375571   -1.0447131877    1.3619910940
H       -0.4187594033   -1.2339823266    1.4595955032
H        1.1959702282   -2.4981481495    2.8538981144
O        3.8921061415   -2.1877205268    2.7502032309
C        3.6341700360   -2.6131410664    4.0271788782
C        2.8963657617   -1.8479747806    4.9477888116
C        2.6876947724   -2.3101829398    6.2531472278
C        3.2288589698   -3.5356501836    6.6549988883
C        3.9805148894   -4.2949050203    5.7528236937
C        4.1820157803   -3.8297015302    4.4478894345
H        4.7709681202   -4.4103423081    3.7449005473
H        4.4117289807   -5.2422583055    6.0639678561
H        3.0724894828   -3.8938356901    7.6685705220
H        2.1124907267   -1.7132312270    6.9552486769
H        2.4927166754   -0.8855199436    4.6492368526
H        4.4585310708   -0.4202417556    0.9941635726
H        2.8480958623    0.8473707465   -0.4219604247
23   

H        0.3940097332    0.2480739296   -0.3273567557
C        1.1100147372   -0.2116989147    0.3479303395
C        2.4800875577    0.0073803966    0.1711534012
C        3.4006734778   -0.5887935649    1.0419021514
C        2.9672763872   -1.3884624249    2.0971673319
C        1.5891994324   -1.6270831381    2.2557075035
C        0.6641160096   -1.0333322416    1.3882549280
H       -0.3984526958   -1.2183041233    1.5183430511
H        1.2289767855   -2.2853748410    3.0394402208
O        3.9473169337   -1.9535755070    2.8658803092
C        3.6559894275   -2.4983056677    4.0918909399
C        2.9176894579   -1.8001189900    5.0615155175
C        2.6720063600   -2.3707105455    6.3165604449
C        3.1785447835   -3.6395359621    6.6173173486
C        3.9322994406   -4.3333994556    5.6650608842
C        4.1705349897   -3.7592531026    4.4105826515
H        4.7618800553   -4.2873782785    3.6692561229
H        4.3370294013   -5.3141181414    5.8987951667
H        2.9940282395   -4.0824278338    7.5919432404
H        2.0955722426   -1.8250766116    7.0583063830
H        2.5429180395   -0.8068142270    4.8347083130
H        4.4654309225   -0.4282629159    0.9045490647
H        2.8307673075    0.6360708248   -0.6424444610
23   

H        0.4083886153    0.0042901115   -0.4715734988
C        1.1248249887   -0.3531611430    0.2625927686
C        2.4928549037   -0.1372131226    0.0689942084
C        3.4137108462   -0.6005182100    1.0166617129
C        2.9830945750   -1.2650261552    2.1639482001
C        1.6062780085   -1.5005041211    2.3428845874
C        0.6814887767   -1.0389066515    1.3979508515
H       -0.3796604805   -1.2202116823    1.5437566005
H        1.2407169772   -2.0519554245    3.2022455004
O        3.9711490845   -1.6993863571    3.0031612642
C        3.6650473437   -2.3680316539    4.1665361715
C        2.9421418521   -1.7494158473    5.1973755598
C        2.6743184415   -2.4351270355    6.3886237081
C        3.1439420465   -3.7417553456    6.5615593047
C        3.8819990223   -4.3586038450    5.5456196467
C        4.1421176790   -3.6689654419    4.3551996681
H        4.7211244416   -4.1360499623    3.5648173179
H        4.2575146541   -5.3690391758    5.6807194772
H        2.9425412543   -4.2744886996    7.4866191723
H        2.1092453796   -1.9505366077    7.1798654411
H        2.5958182507   -0.7292766429    5.0635353808
H        4.4769818957   -0.4405120066    0.8676479258
H        2.8418252461    0.3868190500   -0.8163104516
