15   

H        2.1271730715   -1.0610750811   -1.2209014077
C        1.9701896211   -1.0475287072   -0.1458266652
C        3.0517428696   -1.2090816329    0.7250384961
C        2.8496089340   -1.1921315220    2.1114825651
C        1.5750277870   -1.0076546219    2.6408534493
C        0.4892325695   -0.8565612788    1.7591072322
C        0.6850929842   -0.8725802575    0.3736033716
H       -0.1620505774   -0.7512103565   -0.2955391446
H       -0.5139330107   -0.7261666695    2.1592565881
C        1.3363210858   -1.0078906867    4.1002309048
O        0.2532050539   -1.1124340541    4.6203452440
O        2.4619738227   -0.8943854974    4.8444933813
H        2.1477988741   -0.9106652958    5.7603514292
H        3.7101017045   -1.3264424783    2.7620969291
H        4.0522054062   -1.3500596443    0.3259772498
15   

H        2.1246498236   -1.0335571620   -1.2187924087
C        1.9683910560   -1.0309813914   -0.1435314149
C        3.0460756184   -1.2339519241    0.7240823011
C        2.8439259868   -1.2315912278    2.1105048385
C        1.5758537613   -1.0141836917    2.6412106212
C        0.4920515794   -0.8312661394    1.7648206835
C        0.6874151096   -0.8324161185    0.3789798871
H       -0.1568485451   -0.6835749989   -0.2882393079
H       -0.5072636260   -0.6894662529    2.1703974618
C        1.3412581693   -1.0533494998    4.1018494937
O        0.3073782575   -1.3862224383    4.6242210238
O        2.4261774774   -0.7149077859    4.8376133594
H        2.1290270955   -0.7915560680    5.7560141240
H        3.6941598774   -1.4007068256    2.7666499492
H        4.0421698937   -1.3970805386    0.3225635044
15   

H        2.1177453808   -1.0080953827   -1.2164917857
C        1.9639258414   -1.0165755631   -0.1409094814
C        3.0381744065   -1.2615939679    0.7207679138
C        2.8382729610   -1.2736887314    2.1073345668
C        1.5785464729   -1.0245832249    2.6418253198
C        0.4961200122   -0.8062761823    1.7737745291
C        0.6889194705   -0.7925996675    0.3874306115
H       -0.1526104085   -0.6144350282   -0.2760277076
H       -0.4980998961   -0.6504517153    2.1861056473
C        1.3535898644   -1.0994205047    4.1052576715
O        0.4186272776   -1.6454773707    4.6319184925
O        2.3541387292   -0.5472937747    4.8298452285
H        2.0880904914   -0.6790151686    5.7514243236
H        3.6787885426   -1.4750773214    2.7669380713
H        4.0284920596   -1.4467003182    0.3145362979
15   

H        2.1067610007   -0.9837243015   -1.2155333045
C        1.9581517177   -1.0062208011   -0.1394208193
C        3.0296496342   -1.2973250913    0.7117955090
C        2.8360243652   -1.3272288295    2.0988935466
C        1.5870257975   -1.0499551465    2.6422064415
C        0.5058421860   -0.7862423584    1.7866922891
C        0.6923848857   -0.7543516039    0.3996201208
H       -0.1466318331   -0.5407511094   -0.2565027957
H       -0.4808919850   -0.6098407617    2.2079199655
C        1.3771931461   -1.1498765936    4.1105319093
O        0.5893773061   -1.8830917488    4.6473898020
O        2.2370629293   -0.3838146094    4.8190321086
H        2.0115223223   -0.5556677589    5.7446685625
H        3.6699132663   -1.5622555176    2.7556344564
H        4.0120835818   -1.5040852893    0.2969636721
15   

H        2.0896334049   -0.9507913556   -1.2157596742
C        1.9514579211   -0.9933130431   -0.1388612060
C        3.0217382648   -1.3390449070    0.6934664770
C        2.8415350846   -1.3943120820    2.0815637010
C        1.6068433651   -1.0943036303    2.6431602318
C        0.5275841475   -0.7671075923    1.8080131069
C        0.7008689798   -0.7096716963    0.4199559163
H       -0.1361614860   -0.4497470188   -0.2218167926
H       -0.4463805939   -0.5603690983    2.2442921467
C        1.4183744819   -1.2028470139    4.1181755102
O        0.8236908824   -2.0837035743    4.6786892923
O        2.0538829474   -0.2230835292    4.7977141516
H        1.8715626753   -0.4127542654    5.7292517264
H        3.6732239367   -1.6688430884    2.7254206371
H        3.9926316454   -1.5674540505    0.2631019489
15   

H        2.0780868393   -0.9098248986   -1.2148586224
C        1.9525835033   -0.9734707379   -0.1374505196
C        3.0178275686   -1.3854872130    0.6707002799
C        2.8537545594   -1.4680159714    2.0594546257
C        1.6377601395   -1.1415041076    2.6452017903
C        0.5679591317   -0.7298469595    1.8353317903
C        0.7247766691   -0.6452633511    0.4467129074
H       -0.1065119026   -0.3263711431   -0.1756232725
H       -0.3858865642   -0.4777537795    2.2914383113
C        1.4730089987   -1.2405544486    4.1258747246
O        1.1012532053   -2.2147593928    4.7218263265
O        1.7928668952   -0.0917312402    4.7602210120
H        1.6470277237   -0.2803551177    5.6983165636
H        3.6824125496   -1.7907054254    2.6845548243
H        3.9726394135   -1.6427917354    0.2210765760
15   

H        2.0619297911   -0.8790483799   -1.2142882173
C        1.9514687917   -0.9557129561   -0.1360816984
C        3.0114371314   -1.4250705801    0.6471003763
C        2.8664447572   -1.5247666222    2.0368281587
C        1.6710777304   -1.1693990617    2.6487218174
C        0.6126024951   -0.6836214166    1.8642058020
C        0.7500734404   -0.5820548967    0.4747117949
H       -0.0749029485   -0.2118174596   -0.1272480675
H       -0.3175963563   -0.3865703042    2.3416231007
C        1.5383119488   -1.2544280516    4.1318157707
O        1.4097146879   -2.2666544531    4.7662480239
O        1.5122985092   -0.0369473771    4.7172102413
H        1.4076207251   -0.2213792334    5.6616662982
H        3.6920747227   -1.8895835211    2.6426973083
H        3.9478262543   -1.7126182649    0.1774791611
15   

H        2.0487277823   -0.8846202877   -1.2172486934
C        1.9501730232   -0.9588589670   -0.1377202745
C        3.0022848306   -1.4686808140    0.6303329394
C        2.8726607065   -1.5653425127    2.0217252364
C        1.6979208442   -1.1710126480    2.6518016138
C        0.6503151136   -0.6382453376    1.8810810052
C        0.7728982797   -0.5398078522    0.4900048672
H       -0.0447280338   -0.1354381225   -0.0998975263
H       -0.2602933183   -0.3018339293    2.3702935144
C        1.5964290045   -1.2427548451    4.1339544843
O        1.7085418184   -2.2410864406    4.7950790157
O        1.2701392940   -0.0543676257    4.6902010466
H        1.2143573596   -0.2363846429    5.6393816239
H        3.6927049056   -1.9612311879    2.6159925494
H        3.9210354920   -1.7898439272    0.1478195197
15   

H        2.0333477021   -0.9131398537   -1.2227799188
C        1.9445720019   -0.9746810576   -0.1416052843
C        2.9880039780   -1.5117231194    0.6193108755
C        2.8713850995   -1.5919213787    2.0127836059
C        1.7174240984   -1.1528007744    2.6543384806
C        0.6776821890   -0.5944723019    1.8881688576
C        0.7885125961   -0.5127330301    0.4950172150
H       -0.0224203103   -0.0880500324   -0.0898368753
H       -0.2191302896   -0.2253056462    2.3794638843
C        1.6441545613   -1.2154775829    4.1344176728
O        1.9849076384   -2.1537229375    4.8074671940
O        1.0718718034   -0.1194500277    4.6837189356
H        1.0709326230   -0.2970542570    5.6354852294
H        3.6854929135   -2.0098010810    2.6006344802
H        3.8902876688   -1.8671372429    0.1297714493
15   

H        2.0177212580   -0.9530388098   -1.2296520932
C        1.9381289852   -0.9963334582   -0.1468787662
C        2.9725888152   -1.5530640522    0.6115626586
C        2.8683765349   -1.6096800419    2.0070876944
C        1.7361895746   -1.1234446828    2.6558132027
C        0.7023967883   -0.5507023641    1.8890972792
C        0.8022457676   -0.4928427079    0.4939287134
H       -0.0027086205   -0.0551401314   -0.0896010750
H       -0.1835735946   -0.1515398079    2.3766153778
C        1.6838699788   -1.1792633719    4.1339537702
O        2.2303402313   -2.0124054923    4.8120087637
O        0.9059701671   -0.2185100635    4.6851730587
H        0.9569414503   -0.3829529079    5.6380315417
H        3.6777040441   -2.0441233777    2.5899184149
H        3.8587784511   -1.9425879316    0.1185776998
15   

H        1.9967622715   -0.9985489628   -1.2355066780
C        1.9271954998   -1.0218995291   -0.1514282918
C        2.9532646031   -1.5945606602    0.6058808584
C        2.8626774277   -1.6251127168    2.0031200482
C        1.7537231703   -1.0925346466    2.6572694761
C        0.7245634039   -0.5100198926    1.8889142467
C        0.8119451040   -0.4783035448    0.4920856375
H        0.0122837563   -0.0302808371   -0.0909041268
H       -0.1498630376   -0.0810761186    2.3718313523
C        1.7167859944   -1.1395533839    4.1348693982
O        2.4373567390   -1.8226228019    4.8195694351
O        0.7649297495   -0.3497088519    4.6851517880
H        0.8588266767   -0.4875783461    5.6390246106
H        3.6683852985   -2.0734524692    2.5805920095
H        3.8229864569   -2.0170558536    0.1107122787
15   

H        1.9716838877   -1.0475017779   -1.2388639944
C        1.9132134125   -1.0499014360   -0.1538816193
C        2.9316319996   -1.6363231494    0.6029275466
C        2.8559176633   -1.6392787990    2.0013721641
C        1.7711758701   -1.0614683951    2.6583320889
C        0.7462428564   -0.4710201471    1.8892632598
C        0.8193503068   -0.4666598584    0.4912754673
H        0.0247347778   -0.0093773777   -0.0914311779
H       -0.1134979791   -0.0118416261    2.3706635325
C        1.7452535820   -1.0947464362    4.1362315885
O        2.6010901807   -1.5895811598    4.8276185173
O        0.6531705613   -0.5093032113    4.6816360760
H        0.7779856888   -0.6089903501    5.6367401831
H        3.6566943045   -2.0997824105    2.5761518002
H        3.7841534081   -2.0910886298    0.1064278034
15   

H        1.9428084187   -1.0963254698   -1.2386207418
C        1.8962409425   -1.0779956062   -0.1532147270
C        2.9074102586   -1.6776606331    0.6032335724
C        2.8472829559   -1.6530115717    2.0022310415
C        1.7877701653   -1.0308317694    2.6592356365
C        0.7669196208   -0.4332572143    1.8913605485
C        0.8243411370   -0.4558359294    0.4928024837
H        0.0346415308    0.0102414203   -0.0896115613
H       -0.0752428097    0.0541585957    2.3761404510
C        1.7680236527   -1.0466950957    4.1378279895
O        2.7114770644   -1.3258307833    4.8353945750
O        0.5776520925   -0.6891141875    4.6743416123
H        0.7186139537   -0.7416865908    5.6309313318
H        3.6406252814   -2.1237622283    2.5789886511
H        3.7419411476   -2.1639322133    0.1060330489
15   

H        1.9153641922   -1.1385413818   -1.2355604843
C        1.8803415056   -1.1010622789   -0.1502143813
C        2.8824904878   -1.7163503192    0.6063617925
C        2.8371716160   -1.6662333475    2.0052864486
C        1.8045831785   -0.9994947031    2.6597614547
C        0.7894776717   -0.3928851197    1.8941243125
C        0.8314074885   -0.4399926620    0.4956123728
H        0.0476224250    0.0360754796   -0.0866953045
H       -0.0337932287    0.1199083393    2.3852618232
C        1.7840533419   -0.9976994261    4.1397371598
O        2.7616547916   -1.0494982360    4.8426783265
O        0.5419985725   -0.8781398750    4.6641637138
H        0.6825483802   -0.8802390524    5.6221930179
H        3.6205536869   -2.1476980237    2.5866193738
H        3.6978777117   -2.2341901422    0.1092896853
15   

H        1.8897881739   -1.1733113766   -1.2310666791
C        1.8653332555   -1.1182842032   -0.1461791263
C        2.8555593689   -1.7517523498    0.6116652646
C        2.8236111673   -1.6785019759    2.0100256110
C        1.8194261163   -0.9679417384    2.6602269800
C        0.8133162257   -0.3486610652    1.8959990881
C        0.8408644576   -0.4178536970    0.4980399719
H        0.0649310240    0.0702597544   -0.0847933676
H        0.0095154245    0.1890713546    2.3926635218
C        1.7934632355   -0.9448832003    4.1430370010
O        2.7502839752   -0.7666230362    4.8516483970
O        0.5468174166   -1.0710113758    4.6534111119
H        0.6708248464   -1.0221739205    5.6123898827
H        3.5954068195   -2.1730649687    2.5954336218
H        3.6506066536   -2.3015118585    0.1159352857
15   

H        1.8737385987   -1.2017561040   -1.2273500788
C        1.8548434868   -1.1316265851   -0.1432233072
C        2.8264982955   -1.7872614326    0.6201855975
C        2.8015836751   -1.6941567534    2.0176222523
C        1.8244835839   -0.9416422295    2.6591073548
C        0.8359083197   -0.3018934222    1.8917941862
C        0.8555564764   -0.3900062797    0.4947761224
H        0.0933593124    0.1148182801   -0.0919266551
H        0.0524915284    0.2650288746    2.3883487774
C        1.7910699962   -0.8900048866    4.1451899715
O        2.6770102737   -0.4859195492    4.8509845332
O        0.5974143266   -1.2735544551    4.6513670903
H        0.6959588470   -1.1758830981    5.6094562668
H        3.5577840688   -2.2057502237    2.6082042165
H        3.6011891943   -2.3695057225    0.1293563811
15   

H        1.8759931349   -1.2160241687   -1.2250214363
C        1.8528316684   -1.1344748444   -0.1417755555
C        2.7940651818   -1.8190168186    0.6345525768
C        2.7635605273   -1.7112254378    2.0308891714
C        1.8088804705   -0.9196584023    2.6566764989
C        0.8545991745   -0.2450490068    1.8781750260
C        0.8795031663   -0.3474887906    0.4821830870
H        0.1425621746    0.1822961578   -0.1146949264
H        0.0943199147    0.3599492788    2.3654009139
C        1.7699864762   -0.8345619914    4.1451889787
O        2.5399579867   -0.2183024690    4.8314923067
O        0.7111675853   -1.4888449303    4.6709636274
H        0.7857916887   -1.3483255075    5.6257700618
H        3.4961627055   -2.2446375500    2.6313883012
H        3.5494037498   -2.4346843817    0.1544802422
15   

H        1.9106466414   -1.2132795322   -1.2245241107
C        1.8684755355   -1.1259016497   -0.1423056447
C        2.7633789449   -1.8466281785    0.6560121865
C        2.7082077333   -1.7317931572    2.0510529156
C        1.7676188039   -0.9061614372    2.6526979286
C        0.8706340050   -0.1813077068    1.8528038232
C        0.9201932325   -0.2911092709    0.4579934308
H        0.2238369787    0.2723222103   -0.1565537036
H        0.1363161074    0.4686379445    2.3215826864
C        1.7235761227   -0.7864501195    4.1403386036
O        2.3327034541    0.0170083868    4.7929140153
O        0.9060196837   -1.6989718726    4.7090253165
H        0.9623962482   -1.5211177133    5.6587941694
H        3.4062956382   -2.2911159791    2.6686159223
H        3.5024428519   -2.4949347491    0.1939343949
15   

H        1.9514617900   -1.2012022189   -1.2237355170
C        1.8846861747   -1.1143252597   -0.1427154978
C        2.7255931947   -1.8757526141    0.6763716216
C        2.6387882206   -1.7617532588    2.0698602660
C        1.7112776663   -0.9050374246    2.6491887030
C        0.8813247244   -0.1260211553    1.8284328643
C        0.9626039289   -0.2353280140    0.4350646484
H        0.3135545819    0.3652767137   -0.1958568642
H        0.1751458449    0.5660283928    2.2801698845
C        1.6627576143   -0.7599503163    4.1322825295
O        2.0749834754    0.1840236460    4.7509227253
O        1.1553144838   -1.8515668805    4.7458418318
H        1.1932878581   -1.6419973323    5.6900963257
H        3.2972782692   -2.3501739535    2.7037193353
H        3.4482927019   -2.5539658574    0.2316801102
15   

H        1.9884327199   -1.1981721521   -1.2223636275
C        1.8991833141   -1.1130902355   -0.1428246040
C        2.6940529973   -1.9055306227    0.6924233734
C        2.5786730363   -1.7936296870    2.0840381168
C        1.6632396550   -0.9118325715    2.6466059170
C        0.8864727427   -0.0964223396    1.8086642976
C        0.9963933200   -0.2033945814    0.4171691286
H        0.3858299089    0.4242341299   -0.2257663486
H        0.1995307474    0.6232956126    2.2471974964
C        1.5962129775   -0.7529458054    4.1231748595
O        1.7812220763    0.2768979128    4.7161909590
O        1.3883498945   -1.9219453620    4.7700384686
H        1.3883602255   -1.6850309163    5.7086951993
H        3.2045958856   -2.4055552082    2.7287741962
H        3.4041912955   -2.6057748022    0.2618732835
15   

H        2.0149212098   -1.1944450330   -1.2224271516
C        1.9110575994   -1.1123897047   -0.1439611430
C        2.6681553508   -1.9321837438    0.6994086996
C        2.5343863698   -1.8244260447    2.0897928548
C        1.6372779206   -0.9181442789    2.6452156359
C        0.8985684558   -0.0769154818    1.7970060264
C        1.0272049476   -0.1795220879    0.4069583016
H        0.4454532392    0.4694411555   -0.2415043205
H        0.2252664456    0.6605116665    2.2278621982
C        1.5411089085   -0.7595789055    4.1160822823
O        1.4896697931    0.2955813614    4.6937461185
O        1.5887202862   -1.9344694690    4.7856600903
H        1.5333019384   -1.6844647872    5.7193981082
H        3.1353325270   -2.4599886626    2.7355671706
H        3.3639639024   -2.6510318009    0.2761765248
15   

H        2.0401899410   -1.1866240529   -1.2236677517
C        1.9256876430   -1.1083729654   -0.1459963576
C        2.6489146453   -1.9537308467    0.7011561679
C        2.5017305012   -1.8517560583    2.0907516065
C        1.6270662862   -0.9213713044    2.6441669162
C        0.9177629626   -0.0597453672    1.7893951217
C        1.0602871523   -0.1566562024    0.4005041651
H        0.5019660529    0.5104017416   -0.2502089060
H        0.2537795919    0.6897797014    2.2143290795
C        1.4956755607   -0.7734985858    4.1107632085
O        1.2113619973    0.2520745689    4.6764041840
O        1.7686385457   -1.9065734922    4.7996562709
H        1.6501560991   -1.6594206037    5.7283707757
H        3.0806738945   -2.5125344189    2.7312363188
H        3.3291000298   -2.6893842165    0.2814014112
15   

H        2.0648544256   -1.1740148070   -1.2244986610
C        1.9406965996   -1.1009784974   -0.1475290498
C        2.6308886391   -1.9717997044    0.7007446735
C        2.4713793375   -1.8776009104    2.0896492677
C        1.6211153547   -0.9241296484    2.6435138879
C        0.9377947977   -0.0436269823    1.7850007094
C        1.0931443694   -0.1330638464    0.3971583479
H        0.5565607374    0.5511372337   -0.2540570251
H        0.2815443136    0.7154853737    2.2051758853
C        1.4546566499   -0.7934309211    4.1070616868
O        0.9511186087    0.1524007142    4.6606327138
O        1.9392712366   -1.8416860447    4.8143198212
H        1.7607421344   -1.6121338928    5.7380081153
H        3.0265239784   -2.5652977567    2.7226372351
H        3.2946140720   -2.7230497835    0.2822451713
15   

H        2.0869133951   -1.1573567717   -1.2238971900
C        1.9531978449   -1.0915837273   -0.1476030332
C        2.6109762870   -1.9883131008    0.6991181648
C        2.4389648236   -1.9040534453    2.0872114912
C        1.6135344168   -0.9298471498    2.6431869150
C        0.9544077559   -0.0303193460    1.7846256737
C        1.1225171845   -0.1098426432    0.3977283310
H        0.6071071221    0.5915444269   -0.2523109420
H        0.3061436813    0.7364525426    2.2033545198
C        1.4158270656   -0.8205743991    4.1043664813
O        0.7150869652    0.0001981621    4.6434598662
O        2.0995468409   -1.7382239426    4.8286323114
H        1.8698878863   -1.5386220695    5.7479960438
H        2.9660070484   -2.6178585343    2.7151962427
H        3.2580458924   -2.7535749665    0.2799109593
