15   

H        1.8844832754   -1.1974156296   -1.1372587464
C        1.8989255369   -1.1491111470   -0.0516465471
C        2.9606297087   -1.7132821482    0.6606466635
C        2.9827070492   -1.6488163503    2.0589071717
C        1.9376999440   -1.0273829957    2.7676383437
C        0.8787641802   -0.4514144730    2.0340865787
C        0.8609356612   -0.5150121383    0.6358009766
H        0.0425687143   -0.0641654214    0.0808538017
H        0.0688490641    0.0724066818    2.5336905178
C        1.9680897212   -0.9741908872    4.2380961931
O        2.9986689886   -1.1458832446    4.8281131912
O        0.8177008376   -0.7689023661    4.9117254249
H        0.0392105000   -0.8750360873    4.3499263529
H        3.8160618143   -2.0885566345    2.6033538740
H        3.7727302868   -2.2015725100    0.1292302916
15   

H        1.8836707488   -1.2630048308   -1.1392463988
C        1.8975116701   -1.2018990674   -0.0542872363
C        2.9496601135   -1.7733328328    0.6666810402
C        2.9716332265   -1.6911812050    2.0642061593
C        1.9362431524   -1.0429561309    2.7629974662
C        0.8870027965   -0.4610399328    2.0206419938
C        0.8685928007   -0.5432250327    0.6235267430
H        0.0576302751   -0.0865622580    0.0625068570
H        0.0863565000    0.0823179644    2.5150174005
C        1.9669692172   -0.9570638609    4.2318026208
O        2.9798986341   -1.1865614993    4.8318058916
O        0.8201798788   -0.6788194542    4.8963881059
H        0.0378185925   -0.9607088413    4.4072844056
H        3.7987824842   -2.1346451367    2.6149679463
H        3.7551659448   -2.2797017182    0.1422488144
15   

H        1.8958443980   -1.3125193769   -1.1453668231
C        1.9057372336   -1.2419872564   -0.0609623632
C        2.9499757191   -1.8156689109    0.6699181488
C        2.9671754178   -1.7205286108    2.0668731331
C        1.9351387852   -1.0554447791    2.7547956776
C        0.8935578742   -0.4730748301    2.0023553588
C        0.8794304887   -0.5687286838    0.6062336066
H        0.0740190305   -0.1107384390    0.0383780903
H        0.0955341967    0.0802618971    2.4903522427
C        1.9609908645   -0.9456829309    4.2222495775
O        2.9519525252   -1.2278115673    4.8353835352
O        0.8187592339   -0.5923984266    4.8733959186
H        0.0425716754   -1.0278574338    4.5047499681
H        3.7891105678   -2.1644914779    2.6248670001
H        3.7535223523   -2.3330274306    0.1533435930
15   

H        1.9219811240   -1.3339152600   -1.1566104055
C        1.9244042222   -1.2605771912   -0.0723828613
C        2.9607598226   -1.8366347399    0.6679761165
C        2.9681674956   -1.7376379091    2.0649104568
C        1.9345603631   -1.0648835154    2.7430511389
C        0.9005060318   -0.4818516069    1.9810000274
C        0.8957418693   -0.5817134672    0.5852590661
H        0.0953980879   -0.1228666817    0.0110252763
H        0.0999423958    0.0732064065    2.4631297541
C        1.9493363838   -0.9460740059    4.2102333606
O        2.9157964688   -1.2750075839    4.8379326195
O        0.8161977537   -0.5119863117    4.8460295134
H        0.0570666120   -1.0666835643    4.6424416260
H        3.7843972945   -2.1830249053    2.6299502331
H        3.7659046850   -2.3585442922    0.1586091332
15   

H        1.9614577635   -1.3224474478   -1.1733831779
C        1.9526677015   -1.2536322081   -0.0889312917
C        2.9803766009   -1.8339767196    0.6601890762
C        2.9726455698   -1.7413470356    2.0576729940
C        1.9329468006   -1.0694642033    2.7274544619
C        0.9072871484   -0.4834592970    1.9565384317
C        0.9172675917   -0.5772578685    0.5605042989
H        0.1222399695   -0.1165829470   -0.0195397265
H        0.0997798605    0.0659276264    2.4336918290
C        1.9291472176   -0.9585095122    4.1957072780
O        2.8728462897   -1.3253088097    4.8365547622
O        0.8133990387   -0.4410092316    4.8144934309
H        0.0849154923   -1.0676539482    4.8165609711
H        3.7819470965   -2.1906363855    2.6293872376
H        3.7902632285   -2.3546304516    0.1571898987
15   

H        2.0124584005   -1.2864740841   -1.1912251484
C        1.9887785163   -1.2287932347   -0.1063851528
C        3.0061125731   -1.8165489812    0.6511132470
C        2.9781670361   -1.7394098345    2.0493705865
C        1.9290746152   -1.0744499873    2.7116040062
C        0.9136947584   -0.4819155658    1.9321024152
C        0.9434563447   -0.5606547383    0.5354840473
H        0.1548945171   -0.0960778384   -0.0501631806
H        0.0962642091    0.0568934167    2.4044491641
C        1.8997871848   -0.9847667810    4.1816034081
O        2.8238412094   -1.3846559978    4.8327016725
O        0.8135931305   -0.3839986397    4.7813436128
H        0.1343853978   -1.0226276622    5.0130069205
H        3.7788217860   -2.1957621459    2.6274551766
H        3.8230910723   -2.3317509682    0.1541025908
15   

H        2.0645109870   -1.2497961923   -1.2060670791
C        2.0244657532   -1.2045486519   -0.1211519127
C        3.0313896130   -1.7988838430    0.6450829676
C        2.9814292596   -1.7388953774    2.0436506257
C        1.9210675057   -1.0834352811    2.6976863775
C        0.9160146167   -0.4850844396    1.9090875142
C        0.9674153332   -0.5471106357    0.5123209334
H        0.1854409752   -0.0791794303   -0.0793889011
H        0.0874523993    0.0417455779    2.3755844983
C        1.8644636305   -1.0161122555    4.1688072952
O        2.7727895320   -1.4447172497    4.8270557774
O        0.8119089140   -0.3497498152    4.7476210989
H        0.2118246188   -0.9482730340    5.2015791505
H        3.7735110604   -2.2016895737    2.6282181103
H        3.8568790348   -2.3067090414    0.1546821928
15   

H        2.1054549875   -1.2293268208   -1.2160851261
C        2.0505412945   -1.1936121461   -0.1314905400
C        3.0484465078   -1.7918762064    0.6434522141
C        2.9786899014   -1.7449742748    2.0417456496
C        1.9079299372   -1.0974987902    2.6870042003
C        0.9117462416   -0.4960137683    1.8893577445
C        0.9825203826   -0.5455273064    0.4930000509
H        0.2062958616   -0.0760468055   -0.1049735710
H        0.0733126528    0.0209124239    2.3493631559
C        1.8283876185   -1.0446254665    4.1582480503
O        2.7179557128   -1.5064188120    4.8231435473
O        0.8069598146   -0.3320784798    4.7179659736
H        0.3143662119   -0.8554760994    5.3592634566
H        3.7635631602   -2.2116555909    2.6327667914
H        3.8820051846   -2.2931111004    0.1600462509
15   

H        2.1395039620   -1.2160596533   -1.2221905242
C        2.0722333342   -1.1859010314   -0.1381393457
C        3.0670512907   -1.7782357493    0.6453618146
C        2.9811056755   -1.7386715874    2.0430522695
C        1.8969709751   -1.1044979868    2.6790794820
C        0.9035571186   -0.5098846163    1.8727678837
C        0.9906955683   -0.5516466450    0.4771425662
H        0.2160946375   -0.0875828128   -0.1271111155
H        0.0537530826   -0.0056976394    2.3261864747
C        1.7990665535   -1.0595178949    4.1496603314
O        2.6824184080   -1.5241133775    4.8236025509
O        0.7732467616   -0.3583028982    4.6950932323
H        0.4261062690   -0.8001900064    5.4800685747
H        3.7633068624   -2.2012083635    2.6407304469
H        3.9105113426   -2.2695259157    0.1690292200
15   

H        2.1597665938   -1.2034028978   -1.2262338371
C        2.0832698230   -1.1788299721   -0.1426623989
C        3.0755121278   -1.7681176037    0.6464386786
C        2.9774411046   -1.7359870422    2.0435510408
C        1.8837177645   -1.1121825457    2.6732773955
C        0.8926044555   -0.5213439490    1.8614183620
C        0.9918876237   -0.5555302490    0.4664158408
H        0.2186522160   -0.0946712534   -0.1420083702
H        0.0346195451   -0.0271856477    2.3105995325
C        1.7732893668   -1.0739759448    4.1431246634
O        2.6438080444   -1.5545251973    4.8245058725
O        0.7399032048   -0.3917489861    4.6808940055
H        0.5371981302   -0.7272174910    5.5654997440
H        3.7573417709   -2.1965585233    2.6456723732
H        3.9261421044   -2.2515733442    0.1748889124
15   

H        2.1789648136   -1.1891818332   -1.2286799565
C        2.0952142637   -1.1693767547   -0.1455525267
C        3.0879667963   -1.7520003271    0.6479200227
C        2.9803154569   -1.7262624822    2.0444846722
C        1.8762584582   -1.1158471288    2.6690378826
C        0.8843822538   -0.5322811842    1.8529576881
C        0.9934499413   -0.5596235934    0.4585601895
H        0.2193235736   -0.1046474780   -0.1531446234
H        0.0177758303   -0.0501319515    2.2987463444
C        1.7556163487   -1.0842057432    4.1380139996
O        2.6168335977   -1.5726145196    4.8267461092
O        0.6983563091   -0.4452919620    4.6712270085
H        0.6316778721   -0.6531536498    5.6154453424
H        3.7600918737   -2.1822265468    2.6502286810
H        3.9461086070   -2.2257415940    0.1801522997
15   

H        2.1947375219   -1.1718991751   -1.2287321863
C        2.1059674334   -1.1574189263   -0.1459220244
C        3.1015893716   -1.7322257913    0.6496946457
C        2.9872789186   -1.7136385763    2.0458615096
C        1.8733664171   -1.1187168585    2.6677320597
C        0.8783520544   -0.5435259415    1.8495567171
C        0.9943766239   -0.5631388732    0.4556082743
H        0.2175954402   -0.1149158500   -0.1577180262
H        0.0034216685   -0.0748251253    2.2934684247
C        1.7453979085   -1.0948666235    4.1361303246
O        2.6008502046   -1.5892391563    4.8282333557
O        0.6573499088   -0.5109972470    4.6661220628
H        0.6999389110   -0.5653211222    5.6333332705
H        3.7687698984   -2.1642751500    2.6533678804
H        3.9668079928   -2.1948617411    0.1838598978
15   

H        2.2009836461   -1.1492753009   -1.2274090759
C        2.1103895890   -1.1418720474   -0.1446767299
C        3.1112089490   -1.7098763847    0.6492616453
C        2.9944063641   -1.7007224777    2.0452979619
C        1.8725232302   -1.1226121773    2.6688220396
C        0.8719839624   -0.5547459172    1.8522415398
C        0.9908384380   -0.5643527754    0.4584090184
H        0.2096744033   -0.1221307737   -0.1537021882
H       -0.0099690811   -0.1004081456    2.2971439374
C        1.7418525834   -1.1091454935    4.1372193448
O        2.5956212908   -1.6110535645    4.8255198551
O        0.6233568342   -0.5811941972    4.6668987331
H        0.7380839982   -0.4603478616    5.6215896631
H        3.7795799474   -2.1469055437    2.6513535766
H        3.9821307032   -2.1604574111    0.1822318376
15   

H        2.2027008933   -1.1255945913   -1.2237543251
C        2.1119359331   -1.1268788336   -0.1410065589
C        3.1182453662   -1.6906723371    0.6489069853
C        3.0011376246   -1.6930406346    2.0449203908
C        1.8732999427   -1.1310603677    2.6726770590
C        0.8668947273   -0.5679354957    1.8599348308
C        0.9863294519   -0.5656026272    0.4660955942
H        0.2005712030   -0.1274389506   -0.1430518437
H       -0.0207089507   -0.1274542165    2.3074057597
C        1.7425057022   -1.1297618481    4.1413487381
O        2.5948292523   -1.6432847721    4.8216789977
O        0.5999696414   -0.6453359559    4.6728183693
H        0.7515957899   -0.3386902404    5.5778783972
H        3.7903785361   -2.1366845724    2.6475812162
H        3.9934801201   -2.1295376627    0.1787779100
15   

H        2.2024869859   -1.1019339795   -1.2185548397
C        2.1119062432   -1.1140148599   -0.1358494244
C        3.1223057409   -1.6781088757    0.6485535989
C        3.0053628964   -1.6947138611    2.0444544777
C        1.8737126828   -1.1466475133    2.6777361708
C        0.8627506497   -0.5838388252    1.8704092102
C        0.9821307187   -0.5671767711    0.4766452715
H        0.1928303444   -0.1297543385   -0.1284587719
H       -0.0290752324   -0.1558038009    2.3213998355
C        1.7438508674   -1.1595768666    4.1464720475
O        2.5897002815   -1.6921276373    4.8182492012
O        0.5891191364   -0.6919566598    4.6844649821
H        0.7563617458   -0.2017551547    5.4991357891
H        3.7976036782   -2.1390537714    2.6427142357
H        4.0004620834   -2.1065225492    0.1742258780
15   

H        2.1953671080   -1.0663847933   -1.2108946044
C        2.1066703199   -1.0918924006   -0.1282502887
C        3.1239687488   -1.6550091933    0.6478130922
C        3.0094477478   -1.6892300796    2.0435222964
C        1.8734339410   -1.1600112184    2.6850127548
C        0.8549426950   -0.5989550187    1.8860774513
C        0.9721614203   -0.5643009195    0.4924009272
H        0.1772402002   -0.1287051143   -0.1066528694
H       -0.0417673925   -0.1876409672    2.3427177859
C        1.7466811696   -1.1926938506    4.1535312613
O        2.5937540428   -1.7314971790    4.8159724646
O        0.5843044840   -0.7355723178    4.7051138892
H        0.7466948565   -0.0720224771    5.3842213722
H        3.8068041114   -2.1332874043    2.6352649694
H        4.0054437333   -2.0694073975    0.1671741467
15   

H        2.1905560499   -1.0213725091   -1.1987889258
C        2.1017281225   -1.0645329492   -0.1166897323
C        3.1207622983   -1.6369195430    0.6502449603
C        3.0057379402   -1.6948453800    2.0450568489
C        1.8682786810   -1.1791089655    2.6946414177
C        0.8474502190   -0.6093493734    1.9051311248
C        0.9649173712   -0.5516445018    0.5121782264
H        0.1680616340   -0.1106836728   -0.0803912037
H       -0.0525450889   -0.2119774769    2.3675039742
C        1.7415560525   -1.2388603941    4.1617148102
O        2.5707986420   -1.8107868799    4.8154003260
O        0.6010662935   -0.7318610651    4.7354519092
H        0.7746081666    0.0716806668    5.2340629708
H        3.8038366526   -2.1467342879    2.6299722655
H        4.0036962927   -2.0406380419    0.1631607004
15   

H        2.1933872999   -0.9585727572   -1.1807830983
C        2.1027815342   -1.0221809049   -0.0998065857
C        3.1220371364   -1.6064543642    0.6578026687
C        3.0042668249   -1.6921035710    2.0508745530
C        1.8645738380   -1.1913379188    2.7078777970
C        0.8429140849   -0.6101843563    1.9280139016
C        0.9629613740   -0.5252998912    0.5366075036
H        0.1652677950   -0.0772723349   -0.0495668480
H       -0.0614221170   -0.2288737155    2.3953441595
C        1.7335516212   -1.2860274488    4.1720040923
O        2.5470794022   -1.8862187993    4.8167186007
O        0.6300193536   -0.7166803774    4.7707449260
H        0.8012632659    0.1859191574    5.0515072455
H        3.8016633392   -2.1543607180    2.6287710676
H        4.0068405716   -1.9987380746    0.1647074272
15   

H        2.1961092525   -0.8971961863   -1.1598393967
C        2.1040480301   -0.9792929709   -0.0801942989
C        3.1228063436   -1.5758579531    0.6684099727
C        3.0027505385   -1.6867941014    2.0594100115
C        1.8620096806   -1.1980301159    2.7233583479
C        0.8401466430   -0.6051453062    1.9526607880
C        0.9623519515   -0.4955591244    0.5631048330
H        0.1643512906   -0.0402727781   -0.0171112204
H       -0.0679697542   -0.2380923235    2.4240057228
C        1.7266546409   -1.3254933139    4.1840171593
O        2.5229916889   -1.9593575847    4.8163591587
O        0.6772039887   -0.6878346228    4.8066287560
H        0.8181736138    0.2612559474    4.8588873728
H        3.7989668647   -2.1597974313    2.6303692635
H        4.0085986863   -1.9589476056    0.1697928221
15   

H        2.1842940180   -0.8585590208   -1.1414675913
C        2.0943998441   -0.9525256805   -0.0625686001
C        3.1143922941   -1.5582346010    0.6768491436
C        2.9970489299   -1.6853213866    2.0665830936
C        1.8585894919   -1.2025917709    2.7386689035
C        0.8345125906   -0.6014815230    1.9771897356
C        0.9539668582   -0.4762250101    0.5886187801
H        0.1545126247   -0.0157691268    0.0144338818
H       -0.0748322191   -0.2435674999    2.4530361784
C        1.7265393064   -1.3498761132    4.1973771368
O        2.5034087052   -2.0224237029    4.8141474954
O        0.7378277358   -0.6540267079    4.8415011394
H        0.8070926336    0.2927333846    4.6857291610
H        3.7938503836   -2.1659164275    2.6305036882
H        3.9988927704   -1.9363276418    0.1720649275
15   

H        2.1519539510   -0.8483789697   -1.1305807294
C        2.0684094046   -0.9471817290   -0.0515700667
C        3.0908431081   -1.5603789453    0.6780527588
C        2.9819789886   -1.6937018783    2.0677305545
C        1.8505861261   -1.2086803361    2.7499166427
C        0.8228064115   -0.6012997782    1.9982719456
C        0.9337215335   -0.4703413075    0.6093684489
H        0.1321239441   -0.0054401651    0.0417322915
H       -0.0838800777   -0.2448918585    2.4799951620
C        1.7320799397   -1.3605367496    4.2090372779
O        2.4827995999   -2.0780554326    4.8083043997
O        0.8064534336   -0.6146942322    4.8726871738
H        0.7703461006    0.2910990003    4.5467632775
H        3.7808006353   -2.1795524504    2.6243909208
H        3.9708321677   -1.9392016289    0.1658917158
15   

H        2.1034341666   -0.8647270020   -1.1265601499
C        2.0299498444   -0.9618798959   -0.0466419873
C        3.0549703709   -1.5824770408    0.6727607073
C        2.9596178347   -1.7129535696    2.0635129845
C        1.8403949976   -1.2166580490    2.7574644807
C        0.8086408237   -0.6030522061    2.0161180234
C        0.9059117337   -0.4755899115    0.6256806428
H        0.1022906147   -0.0056227529    0.0650841904
H       -0.0911807707   -0.2394293731    2.5047680761
C        1.7446312744   -1.3600023303    4.2189677666
O        2.4629322401   -2.1234549509    4.8019628397
O        0.8796504269   -0.5710367319    4.8998210819
H        0.7136785513    0.2641547569    4.4462994831
H        3.7609942535   -2.2031252321    2.6127873089
H        3.9269260101   -1.9684193856    0.1521647731
15   

H        2.0483750261   -0.9004075136   -1.1277963343
C        1.9860143490   -0.9912898122   -0.0466176659
C        3.0102263776   -1.6234057109    0.6635129869
C        2.9298587730   -1.7445966897    2.0558597745
C        1.8278848098   -1.2264022272    2.7613007175
C        0.7957495089   -0.6018654080    2.0292943376
C        0.8776508884   -0.4847267480    0.6367657637
H        0.0748329729   -0.0057021300    0.0827148582
H       -0.0926433345   -0.2202678380    2.5243666881
C        1.7595380070   -1.3521456080    4.2260588572
O        2.4386596347   -2.1607815522    4.7957903969
O        0.9540626887   -0.5217672158    4.9195987469
H        0.6435407285    0.2201966115    4.3848134531
H        3.7315675461   -2.2416872786    2.5984810762
H        3.8706064670   -2.0242006918    0.1348848850
15   

H        1.9917913361   -0.9392917546   -1.1330658801
C        1.9428054711   -1.0198663285   -0.0503772178
C        2.9616869131   -1.6703966513    0.6501049022
C        2.8991580300   -1.7770341864    2.0443351532
C        1.8214338548   -1.2257539139    2.7626950481
C        0.7944337895   -0.5812690027    2.0399399370
C        0.8580567735   -0.4798261794    0.6450023468
H        0.0601673177    0.0153253869    0.0980783655
H       -0.0754946660   -0.1674586987    2.5406504910
C        1.7842938436   -1.3319329438    4.2312348889
O        2.4463763271   -2.1623277464    4.7902588936
O        1.0071194014   -0.4880788124    4.9361972834
H        0.5258321485    0.1307977126    4.3713620098
H        3.6984682814   -2.2865866413    2.5789348982
H        3.8049746922   -2.0954895292    0.1129514776
