15   

H        1.8844835388   -1.1974122898   -1.1372588935
C        1.8989258307   -1.1491082775   -0.0516466734
C        2.9606300895   -1.7132794717    0.6606462480
C        2.9827074104   -1.6488143758    2.0589067855
C        1.9377002072   -1.0273815486    2.7676382817
C        0.8787643834   -0.4514127634    2.0340868139
C        0.8609358840   -0.5150097301    0.6358011745
H        0.0425688532   -0.0641628931    0.0808542245
H        0.0688491375    0.0724079275    2.5336910291
C        1.9680897212   -0.9741908872    4.2380961931
O        2.9986689886   -1.1458832446    4.8281131912
O        0.8177008376   -0.7689023661    4.9117254249
H        0.0392105000   -0.8750360873    4.3499263529
H        3.8160621729   -2.0885549365    2.6033532698
H        3.7727307042   -2.2015695101    0.1292296329
15   

H        1.8836717899   -1.2629984535   -1.1392467671
C        1.8975126654   -1.2018935920   -0.0542875546
C        2.9496610430   -1.7733280367    0.6666802698
C        2.9716340071   -1.6911777315    2.0642054591
C        1.9362438533   -1.0429533469    2.7629972931
C        0.8870036196   -0.4610363566    2.0206422934
C        0.8685937661   -0.5432201340    0.6235269551
H        0.0576312474   -0.0865569157    0.0625074235
H        0.0863571814    0.0823208732    2.5150181996
C        1.9669692172   -0.9570638609    4.2318026208
O        2.9798986341   -1.1865614993    4.8318058916
O        0.8201798788   -0.6788194542    4.8963881059
H        0.0378185925   -0.9607088413    4.4072844056
H        3.7987830779   -2.1346424184    2.6149669217
H        3.7551668574   -2.2796965525    0.1422476573
15   

H        1.8958466141   -1.3125099449   -1.1453675100
C        1.9057392664   -1.2419791498   -0.0609629636
C        2.9499776584   -1.8156616691    0.6699169894
C        2.9671769746   -1.7205233208    2.0668721004
C        1.9351400454   -1.0554406694    2.7547953426
C        0.8935593106   -0.4730696821    2.0023556031
C        0.8794323182   -0.5687215566    0.6062336995
H        0.0740208828   -0.1107307370    0.0383786181
H        0.0955352606    0.0802659368    2.4903531285
C        1.9609908645   -0.9456829309    4.2222495775
O        2.9519525252   -1.2278115673    4.8353835352
O        0.8187592339   -0.5923984266    4.8733959186
H        0.0425716754   -1.0278574338    4.5047499681
H        3.7891118392   -2.1644872022    2.6248655813
H        3.7535243866   -2.3330195543    0.1533419409
15   

H        1.9219849789   -1.3339036482   -1.1566112911
C        1.9244076521   -1.2605671904   -0.0723836376
C        2.9607630321   -1.8366257541    0.6679748448
C        2.9681699694   -1.7376313256    2.0649093471
C        1.9345623124   -1.0648784042    2.7430507005
C        0.9005083162   -0.4818452595    1.9810001061
C        0.8957448887   -0.5817047104    0.5852589554
H        0.0954011964   -0.1228572911    0.0110255540
H        0.0999440905    0.0732113422    2.4631304723
C        1.9493363838   -0.9460740059    4.2102333606
O        2.9157964688   -1.2750075839    4.8379326195
O        0.8161977537   -0.5119863117    4.8460295134
H        0.0570666120   -1.0666835643    4.6424416260
H        3.7843993144   -2.1830195691    2.6299487981
H        3.7659081284   -2.3585345013    0.1586074018
15   

H        1.9614632844   -1.3224340903   -1.1733840879
C        1.9526725543   -1.2536207039   -0.0889320910
C        2.9803810301   -1.8339664472    0.6601878921
C        2.9726489132   -1.7413395231    2.0576719779
C        1.9329494420   -1.0694583345    2.7274540142
C        0.9072903511   -0.4834519455    1.9565383833
C        0.9172718945   -0.5772477305    0.5605040604
H        0.1222444980   -0.1165720282   -0.0195396513
H        0.0997823103    0.0659333809    2.4336923361
C        1.9291472176   -0.9585095122    4.1957072780
O        2.8728462897   -1.3253088097    4.8365547622
O        0.8133990387   -0.4410092316    4.8144934309
H        0.0849154923   -1.0676539482    4.8165609711
H        3.7819497980   -2.1906303449    2.6293859756
H        3.7902679798   -2.3546193007    0.1571883219
15   

H        2.0124654944   -1.2864605853   -1.1912257805
C        1.9887846484   -1.2287816003   -0.1063857075
C        3.0061180403   -1.8165386607    0.6511125596
C        2.9781710384   -1.7394023174    2.0493700131
C        1.9290777814   -1.0744440422    2.7116036993
C        0.9136987419   -0.4819080408    1.9321022586
C        0.9434617927   -0.5606444105    0.5354837537
H        0.1549003729   -0.0960666756   -0.0501633598
H        0.0962673450    0.0568993912    2.4044493084
C        1.8997871848   -0.9847667810    4.1816034081
O        2.8238412094   -1.3846559978    4.8327016725
O        0.8135931305   -0.3839986397    4.7813436128
H        0.1343853978   -1.0226276622    5.0130069205
H        3.7788249361   -2.1957562097    2.6274545370
H        3.8230969658   -2.3317398216    0.1541017467
15   

H        2.0645178888   -1.2497841594   -1.2060673705
C        2.0244717511   -1.2045382468   -0.1211521701
C        3.0313949252   -1.7988746607    0.6450826579
C        2.9814331745   -1.7388886701    2.0436503713
C        1.9210706529   -1.0834299137    2.6976862359
C        0.9160186140   -0.4850775779    1.9090874184
C        0.9674207365   -0.5471012909    0.5123207780
H        0.1854468155   -0.0791692949   -0.0793890077
H        0.0874556196    0.0417511129    2.3755845186
C        1.8644636305   -1.0161122555    4.1688072952
O        2.7727895320   -1.4447172497    4.8270557774
O        0.8119089140   -0.3497498152    4.7476210989
H        0.2118246188   -0.9482730340    5.2015791505
H        3.7735141416   -2.2016843279    2.6282178265
H        3.8568847167   -2.3066991890    0.1546818110
15   

H        2.1054614529   -1.2293171054   -1.2160851588
C        2.0505468778   -1.1936037187   -0.1314905744
C        3.0484514556   -1.7918687006    0.6434522842
C        2.9786935071   -1.7449687598    2.0417457216
C        1.9079327932   -1.0974944087    2.6870041784
C        0.9117498808   -0.4960082314    1.8893576121
C        0.9825253624   -0.5455197780    0.4929999142
H        0.2063012592   -0.0760386914   -0.1049737865
H        0.0733155701    0.0209168493    2.3493629593
C        1.8283876185   -1.0446254665    4.1582480503
O        2.7179557128   -1.5064188120    4.8231435473
O        0.8069598146   -0.3320784798    4.7179659736
H        0.3143662119   -0.8554760994    5.3592634566
H        3.7635660146   -2.2116512328    2.6327669449
H        3.8820105235   -2.2931030283    0.1600464101
15   

H        2.1395091540   -1.2160520529   -1.2221904268
C        2.0722377867   -1.1858944578   -0.1381392664
C        3.0670551519   -1.7782300121    0.6453620100
C        2.9811084492   -1.7386674029    2.0430524409
C        1.8969732009   -1.1044945934    2.6790795184
C        0.9035600391   -0.5098802187    1.8727678028
C        0.9906995909   -0.5516406724    0.4771425079
H        0.2160990651   -0.0875762788   -0.1271112597
H        0.0537554811   -0.0056940283    2.3261862895
C        1.7990665535   -1.0595178949    4.1496603314
O        2.6824184080   -1.5241133775    4.8236025509
O        0.7732467616   -0.3583028982    4.6950932323
H        0.4261062690   -0.8001900064    5.4800685747
H        3.7633090046   -2.2012051408    2.6407307007
H        3.9105154775   -2.2695198138    0.1690295260
15   

H        2.1597699468   -1.2033975591   -1.2262337409
C        2.0832727144   -1.1788253581   -0.1426623171
C        3.0755146867   -1.7681135076    0.6464387929
C        2.9774429701   -1.7359840587    2.0435511363
C        1.8837192378   -1.1121801932    2.6732774390
C        0.8926063351   -0.5213409563    1.8614183728
C        0.9918902009   -0.5555261406    0.4664158756
H        0.2186550082   -0.0946668097   -0.1420083521
H        0.0346210451   -0.0271832661    2.3105994929
C        1.7732893668   -1.0739759448    4.1431246634
O        2.6438080444   -1.5545251973    4.8245058725
O        0.7399032048   -0.3917489861    4.6808940055
H        0.5371981302   -0.7272174910    5.5654997440
H        3.7573432452   -2.1965561716    2.6456724925
H        3.9261448634   -2.2515689304    0.1748890646
15   

H        2.1789663986   -1.1891793461   -1.2286798895
C        2.0952156094   -1.1693746269   -0.1455524728
C        3.0879678833   -1.7519986144    0.6479200959
C        2.9803162178   -1.7262612728    2.0444847289
C        1.8762591311   -1.1158460332    2.6690379092
C        0.8843831928   -0.5322796654    1.8529576911
C        0.9934512158   -0.5596215571    0.4585602088
H        0.2193250252   -0.1046451769   -0.1531446310
H        0.0177766471   -0.0501306124    2.2987463100
C        1.7556163487   -1.0842057432    4.1380139996
O        2.6168335977   -1.5726145196    4.8267461092
O        0.6983563091   -0.4452919620    4.6712270085
H        0.6316778721   -0.6531536498    5.6154453424
H        3.7600923762   -2.1822257636    2.6502287500
H        3.9461097143   -2.2257398745    0.1801523996
15   

H        2.1947375547   -1.1718994363   -1.2287321693
C        2.1059674554   -1.1574191227   -0.1459220121
C        3.1015893275   -1.7322260593    0.6496946876
C        2.9872788605   -1.7136387694    2.0458615457
C        1.8733664153   -1.1187169073    2.6677320612
C        0.8783521211   -0.5435259117    1.8495566895
C        0.9943767042   -0.5631389137    0.4556082457
H        0.2175955857   -0.1149158276   -0.1577180913
H        0.0034217844   -0.0748249808    2.2934683742
C        1.7453979085   -1.0948666235    4.1361303246
O        2.6008502046   -1.5892391563    4.8282333557
O        0.6573499088   -0.5109972470    4.6661220628
H        0.6999389110   -0.5653211222    5.6333332705
H        3.7687697869   -2.1642754027    2.6533679388
H        3.9668079063   -2.1948621198    0.1838599700
15   

H        2.2009823639   -1.1492777526   -1.2274091530
C        2.1103884771   -1.1418741795   -0.1446767966
C        3.1112079136   -1.7098783626    0.6492615917
C        2.9944055824   -1.7007239671    2.0452979229
C        1.8725226330   -1.1226133183    2.6688220028
C        0.8719832569   -0.5547472679    1.8522414902
C        0.9908374838   -0.5643546060    0.4584089536
H        0.2096734147   -0.1221326756   -0.1537022596
H       -0.0099696091   -0.1004091586    2.2971438950
C        1.7418525834   -1.1091454935    4.1372193448
O        2.5956212908   -1.6110535645    4.8255198551
O        0.6233568342   -0.5811941972    4.6668987331
H        0.7380839982   -0.4603478616    5.6215896631
H        3.7795792859   -2.1469067951    2.6513535551
H        3.9821295701   -2.1604595798    0.1822317857
15   

H        2.2026983052   -1.1256000698   -1.2237545568
C        2.1119336807   -1.1268835780   -0.1410067634
C        3.1182433343   -1.6906765924    0.6489068486
C        3.0011361256   -1.6930437507    2.0449202999
C        1.8732987662   -1.1310628158    2.6726769503
C        0.8668932572   -0.5679385813    1.8599346420
C        0.9863274541   -0.5656068341    0.4660953605
H        0.2005690682   -0.1274434686   -0.1430521247
H       -0.0207101100   -0.1274566654    2.3074055594
C        1.7425057022   -1.1297618481    4.1413487381
O        2.5948292523   -1.6432847721    4.8216789977
O        0.5999696414   -0.6453359559    4.6728183693
H        0.7515957899   -0.3386902404    5.5778783972
H        3.7903773364   -2.1366870632    2.6475811904
H        3.9934779184   -2.1295422826    0.1787777979
15   

H        2.2024833324   -1.1019417051   -1.2185552497
C        2.1119030694   -1.1140215757   -0.1358497837
C        3.1223028424   -1.6781149891    0.6485533214
C        3.0053607443   -1.6947184112    2.0444542834
C        1.8737110188   -1.1466510465    2.6777359814
C        0.8627486248   -0.5838431444    1.8704089201
C        0.9821279461   -0.5671826559    0.4766449020
H        0.1928274136   -0.1297605862   -0.1284591976
H       -0.0290767748   -0.1558071289    2.3213995596
C        1.7438508674   -1.1595768666    4.1464720475
O        2.5897002815   -1.6921276373    4.8182492012
O        0.5891191364   -0.6919566598    4.6844649821
H        0.7563617458   -0.2017551547    5.4991357891
H        3.7976019235   -2.1390575135    2.6427141168
H        4.0004589251   -2.1065292072    0.1742256130
15   

H        2.1953622379   -1.0663953797   -1.2108952828
C        2.1066661014   -1.0919015470   -0.1282508807
C        3.1239649681   -1.6550173552    0.6478126405
C        3.0094449665   -1.6892360624    2.0435219814
C        1.8734317501   -1.1600159341    2.6850124460
C        0.8549399605   -0.5989609409    1.8860769834
C        0.9721576853   -0.5643090209    0.4924003233
H        0.1772361976   -0.1287138243   -0.1066535602
H       -0.0417695376   -0.1876456411    2.3427173492
C        1.7466811696   -1.1926938506    4.1535312613
O        2.5937540428   -1.7314971790    4.8159724646
O        0.5843044840   -0.7355723178    4.7051138892
H        0.7466948565   -0.0720224771    5.3842213722
H        3.8068019004   -2.1332921754    2.6352647927
H        4.0054396515   -2.0694162210    0.1671737167
15   

H        2.1905496603   -1.0213847063   -1.1987899853
C        2.1017226160   -1.0645435074   -0.1166906556
C        3.1207572832   -1.6369291967    0.6502440546
C        3.0057342460   -1.6948525397    2.0450561553
C        1.8682758600   -1.1791144462    2.6946409329
C        0.8474467767   -0.6093560205    1.9051306036
C        0.9649126050   -0.5516536507    0.5121774893
H        0.1680565697   -0.1106933430   -0.0803919249
H       -0.0525476973   -0.2119824963    2.3675036726
C        1.7415560525   -1.2388603941    4.1617148102
O        2.5707986420   -1.8107868799    4.8154003260
O        0.6010662935   -0.7318610651    4.7354519092
H        0.7746081666    0.0716806668    5.2340629708
H        3.8038336090   -2.1467402226    2.6299716272
H        4.0036907896   -2.0406486123    0.1631596724
15   

H        2.1933794194   -0.9585853705   -1.1807845892
C        2.1027747805   -1.0221918683   -0.0998078827
C        3.1220311773   -1.6064641523    0.6578012057
C        3.0042625212   -1.6921108183    2.0508733856
C        1.8645704510   -1.1913436859    2.7078771091
C        0.8429097414   -0.6101916031    1.9280133674
C        0.9629553760   -0.5253096979    0.5366066659
H        0.1652612697   -0.0772828799   -0.0495675276
H       -0.0614256067   -0.2288794986    2.3953440843
C        1.7335516212   -1.2860274488    4.1720040923
O        2.5470794022   -1.8862187993    4.8167186007
O        0.6300193536   -0.7166803774    4.7707449260
H        0.8012632659    0.1859191574    5.0515072455
H        3.8016599345   -2.1543664916    2.6287698442
H        4.0068341216   -1.9987485810    0.1647056507
15   

H        2.1961009799   -0.8972082054   -1.1598411194
C        2.1040409602   -0.9793033618   -0.0801957949
C        3.1228000392   -1.5758673848    0.6684081898
C        3.0027459808   -1.6868010538    2.0594085667
C        1.8620061690   -1.1980354818    2.7233575476
C        0.8401422307   -0.6051518786    1.9526602793
C        0.9623457854   -0.4955681836    0.5631039610
H        0.1643446216   -0.0402824073   -0.0171118431
H       -0.0679731920   -0.2380973229    2.4240058576
C        1.7266546409   -1.3254933139    4.1840171593
O        2.5229916889   -1.9593575847    4.8163591587
O        0.6772039887   -0.6878346228    4.8066287560
H        0.8181736138    0.2612559474    4.8588873728
H        3.7989631738   -2.1598030891    2.6303676872
H        4.0085917782   -1.9589578936    0.1697906215
15   

H        2.1842859824   -0.8585687002   -1.1414691863
C        2.0943929974   -0.9525341163   -0.0625699899
C        3.1143863647   -1.5582420015    0.6768473224
C        2.9970447147   -1.6853268151    2.0665815852
C        1.8585861393   -1.2025962101    2.7386681506
C        0.8345081820   -0.6014872421    1.9771894198
C        0.9539607270   -0.4762327092    0.5886181243
H        0.1545058505   -0.0157775095    0.0144335784
H       -0.0748358328   -0.2435721924    2.4530366010
C        1.7265393064   -1.3498761132    4.1973771368
O        2.5034087052   -2.0224237029    4.8141474954
O        0.7378277358   -0.6540267079    4.8415011394
H        0.8070926336    0.2927333846    4.6857291610
H        3.7938471191   -2.1659205688    2.6305019340
H        3.9988863562   -1.9363354878    0.1720625868
15   

H        2.1519470049   -0.8483858015   -1.1305819555
C        2.0684035028   -0.9471877275   -0.0515711321
C        3.0908379374   -1.5603843537    0.6780511542
C        2.9819753175   -1.6937059364    2.0677291875
C        1.8505832783   -1.2086835884    2.7499160697
C        0.8228027123   -0.6013038000    1.9982719226
C        0.9337163339   -0.4703466903    0.6093681628
H        0.1321182349   -0.0054459030    0.0417324373
H       -0.0838830570   -0.2448950372    2.4799958701
C        1.7320799397   -1.3605367496    4.2090372779
O        2.4827995999   -2.0780554326    4.8083043997
O        0.8064534336   -0.6146942322    4.8726871738
H        0.7703461006    0.2910990003    4.5467632775
H        3.7807977212   -2.1795556792    2.6243891992
H        3.9708265145   -1.9392074072    0.1658895546
15   

H        2.1034289630   -0.8647313193   -1.1265609052
C        2.0299454672   -0.9618836777   -0.0466426396
C        3.0549665325   -1.5824804951    0.6727595611
C        2.9596151360   -1.7129561754    2.0635119892
C        1.8403929434   -1.2166601109    2.7574641382
C        0.8086381733   -0.6030546775    2.0161181838
C        0.9059079332   -0.4755932418    0.6256806374
H        0.1022864347   -0.0056262585    0.0650845841
H       -0.0911828571   -0.2394312510    2.5047688275
C        1.7446312744   -1.3600023303    4.2189677666
O        2.4629322401   -2.1234549509    4.8019628397
O        0.8796504269   -0.5710367319    4.8998210819
H        0.7136785513    0.2641547569    4.4462994831
H        3.7609920931   -2.2031273458    2.6127859664
H        3.9269217702   -1.9684231091    0.1521631517
15   

H        2.0483722795   -0.9004098916   -1.1277966799
C        1.9860120379   -0.9912918653   -0.0466179573
C        3.0102244617   -1.6234073521    0.6635124849
C        2.9298574588   -1.7445978407    2.0558593448
C        1.8278837228   -1.2264032823    2.7613005783
C        0.7957479950   -0.6018669193    2.0292944226
C        0.8776487718   -0.4847287546    0.6367657633
H        0.0748305773   -0.0057044159    0.0827150242
H       -0.0926446371   -0.2202692194    2.5243670527
C        1.7595380070   -1.3521456080    4.2260588572
O        2.4386596347   -2.1607815522    4.7957903969
O        0.9540626887   -0.5217672158    4.9195987469
H        0.6435407285    0.2201966115    4.3848134531
H        3.7315666001   -2.2416880049    2.5984804938
H        3.8706044239   -2.0242023335    0.1348841754
15   

H        1.9917912477   -0.9392917297   -1.1330658684
C        1.9428054062   -1.0198663033   -0.0503772068
C        2.9616868053   -1.6703967296    0.6501048779
C        2.8991579517   -1.7770342700    2.0443351286
C        1.8214338472   -1.2257538997    2.7626950539
C        0.7944338286   -0.5812688772    2.0399399782
C        0.8580567839   -0.4798260472    0.6450023909
H        0.0601673627    0.0153256078    0.0980784406
H       -0.0754945702   -0.1674584868    2.5406505592
C        1.7842938436   -1.3319329438    4.2312348889
O        2.4463763271   -2.1623277464    4.7902588936
O        1.0071194014   -0.4880788124    4.9361972834
H        0.5258321485    0.1307977126    4.3713620098
H        3.6984681676   -2.2865868088    2.5789348470
H        3.8049745246   -2.0954896829    0.1129514185
