15   

H        1.8844730563   -1.1975035287   -1.1372551001
C        1.8989154245   -1.1491864418   -0.0516434619
C        2.9606197513   -1.7133487773    0.6606565386
C        2.9826984084   -1.6488645617    2.0589163160
C        1.9376924091   -1.0274207588    2.7676398518
C        0.8787558328   -0.4514625020    2.0340809863
C        0.8609259632   -0.5150786718    0.6357963916
H        0.0425593057   -0.0642377788    0.0808440114
H        0.0688426529    0.0723682530    2.5336780288
C        1.9680897212   -0.9741908872    4.2380961931
O        2.9986689886   -1.1458832446    4.8281131912
O        0.8177008376   -0.7689023661    4.9117254249
H        0.0392105000   -0.8750360873    4.3499263529
H        3.8160549890   -2.0885950551    2.6033680958
H        3.7727204533   -2.2016449306    0.1292457207
15   

H        1.8836445127   -1.2631488612   -1.1392377457
C        1.8974872059   -1.2020224729   -0.0542797689
C        2.9496362702   -1.7734431261    0.6666982231
C        2.9716137207   -1.6912613163    2.0642217004
C        1.9362273395   -1.0430180426    2.7630014428
C        0.8869852453   -0.4611175072    2.0206358120
C        0.8685708394   -0.5433329594    0.6235226364
H        0.0576086373   -0.0866787812    0.0624952109
H        0.0863438125    0.0822572980    2.5150005873
C        1.9669692172   -0.9570638609    4.2318026208
O        2.9798986341   -1.1865614993    4.8318058916
O        0.8201798788   -0.6788194542    4.8963881059
H        0.0378185925   -0.9607088413    4.4072844056
H        3.7987664032   -2.1347099875    2.6149905616
H        3.7551409936   -2.2798223009    0.1422742957
15   

H        1.8958096094   -1.3126596570   -1.1453566020
C        1.9057056860   -1.2421075429   -0.0609534716
C        2.9499457851   -1.8157763743    0.6699349815
C        2.9671517744   -1.7206067204    2.0668880537
C        1.9351198896   -1.0555052576    2.7548005701
C        0.8935361782   -0.4731506316    2.0023519577
C        0.8794024336   -0.5688340094    0.6062324906
H        0.0739906121   -0.1108520741    0.0383707234
H        0.0955182173    0.0802027110    2.4903394398
C        1.9609908645   -0.9456829309    4.2222495775
O        2.9519525252   -1.2278115673    4.8353835352
O        0.8187592339   -0.5923984266    4.8733959186
H        0.0425716754   -1.0278574338    4.5047499681
H        3.7890912077   -2.1645545882    2.6248874952
H        3.7534906126   -2.3331447682    0.1533675532
15   

H        1.9219588480   -1.3339845917   -1.1566051117
C        1.9243843875   -1.2606366917   -0.0723782394
C        2.9607413529   -1.8366879127    0.6679838182
C        2.9681532815   -1.7376765717    2.0649171688
C        1.9345491179   -1.0649134775    2.7430537068
C        0.9004927704   -0.4818891719    1.9809993846
C        0.8957243219   -0.5817656167    0.5852595605
H        0.0953799495   -0.1229229225    0.0110232974
H        0.0999324653    0.0731771119    2.4631251603
C        1.9493363838   -0.9460740059    4.2102333606
O        2.9157964688   -1.2750075839    4.8379326195
O        0.8161977537   -0.5119863117    4.8460295134
H        0.0570666120   -1.0666835643    4.6424416260
H        3.7843857080   -2.1830560990    2.6299590207
H        3.7658849035   -2.3586023165    0.1586197507
15   

H        1.9614707557   -1.3224160198   -1.1733853071
C        1.9526791110   -1.2536051551   -0.0889331561
C        2.9803870237   -1.8339525503    0.6601863065
C        2.9726534308   -1.7413293704    2.0576706182
C        1.9329529939   -1.0694504290    2.7274534217
C        0.9072946484   -0.4834420493    1.9565383429
C        0.9172776921   -0.5772340528    0.5605037592
H        0.1222506059   -0.1165572886   -0.0195395256
H        0.0997855834    0.0659411041    2.4336930584
C        1.9291472176   -0.9585095122    4.1957072780
O        2.8728462897   -1.3253088097    4.8365547622
O        0.8133990387   -0.4410092316    4.8144934309
H        0.0849154923   -1.0676539482    4.8165609711
H        3.7819534608   -2.1906221636    2.6293842801
H        3.7902744297   -2.3546041946    0.1571862179
15   

H        2.0124925707   -1.2864054416   -1.1912284443
C        1.9888083173   -1.2287340174   -0.1063880445
C        3.0061393046   -1.8164964196    0.6511092831
C        2.9781868966   -1.7393714661    2.0493672420
C        1.9290904700   -1.0744196295    2.7116024090
C        0.9137145074   -0.4818771427    1.9321019307
C        0.9434829710   -0.5606020945    0.5354828734
H        0.1549229650   -0.0960209557   -0.0501634298
H        0.0962798133    0.0569239583    2.4044504739
C        1.8997871848   -0.9847667810    4.1816034081
O        2.8238412094   -1.3846559978    4.8327016725
O        0.8135931305   -0.3839986397    4.7813436128
H        0.1343853978   -1.0226276622    5.0130069205
H        3.7788375399   -2.1957317967    2.6274511871
H        3.8231197287   -2.3316942376    0.1540974679
15   

H        2.0645134656   -1.2497915638   -1.2060672069
C        2.0244679620   -1.2045445954   -0.1211520256
C        3.0313916133   -1.7988802064    0.6450828031
C        2.9814307983   -1.7388926484    2.0436504852
C        1.9210687569   -1.0834330903    2.6976863158
C        0.9160161594   -0.4850816882    1.9090874989
C        0.9674173479   -0.5471069675    0.5123208943
H        0.1854431164   -0.0791754904   -0.0793888923
H        0.0874536476    0.0417478067    2.3755845504
C        1.8644636305   -1.0161122555    4.1688072952
O        2.7727895320   -1.4447172497    4.8270557774
O        0.8119089140   -0.3497498152    4.7476210989
H        0.2118246188   -0.9482730340    5.2015791505
H        3.7735123146   -2.2016873843    2.6282179286
H        3.8568811518   -2.3067051578    0.1546819691
15   

H        2.1054027114   -1.2294075506   -1.2160848273
C        2.0504961389   -1.1936819899   -0.1314902355
C        3.0484065696   -1.7919381182    0.6434519219
C        2.9786607087   -1.7450195734    2.0417453183
C        1.9079066767   -1.0975348664    2.6870043744
C        0.9117166461   -0.4960595433    1.8893585639
C        0.9824800164   -0.5455897355    0.4930008975
H        0.2062521777   -0.0761142722   -0.1049723747
H        0.0732889040    0.0208758627    2.3493642820
C        1.8283876185   -1.0446254665    4.1582480503
O        2.7179557128   -1.5064188120    4.8231435473
O        0.8069598146   -0.3320784798    4.7179659736
H        0.3143662119   -0.8554760994    5.3592634566
H        3.7635401130   -2.2116911511    2.6327660118
H        3.8819622195   -2.2931776288    0.1600455131
15   

H        2.1394233712   -1.2161842806   -1.2221916845
C        2.0721637879   -1.1860088983   -0.1381402843
C        3.0669898729   -1.7783313406    0.6453598236
C        2.9810608778   -1.7387415470    2.0430505418
C        1.8969352816   -1.1045537757    2.6790790085
C        0.9035115723   -0.5099554476    1.8727685333
C        0.9906333843   -0.5517431379    0.4771429160
H        0.2160272562   -0.0876870804   -0.1271100725
H        0.0537164621   -0.0057543118    2.3261881097
C        1.7990665535   -1.0595178949    4.1496603314
O        2.6824184080   -1.5241133775    4.8236025509
O        0.7732467616   -0.3583028982    4.6950932323
H        0.4261062690   -0.8001900064    5.4800685747
H        3.7632715649   -2.2012632330    2.6407279918
H        3.9104452475   -2.2696285747    0.1690262206
15   

H        2.1596924203   -1.2035185518   -1.2262361306
C        2.0832058729   -1.1789300478   -0.1426643229
C        3.0754556869   -1.7682063134    0.6464357865
C        2.9774000177   -1.7360519456    2.0435486461
C        1.8836850752   -1.1122342791    2.6732764310
C        0.8925626837   -0.5214096266    1.8614184010
C        0.9918304883   -0.5556197380    0.4664153485
H        0.2185902491   -0.0947679409   -0.1420081787
H        0.0345859707   -0.0272381828    2.3106007626
C        1.7732893668   -1.0739759448    4.1431246634
O        2.6438080444   -1.5545251973    4.8245058725
O        0.7399032048   -0.3917489861    4.6808940055
H        0.5371981302   -0.7272174910    5.5654997440
H        3.7573094256   -2.1966094474    2.6456693701
H        3.9260813159   -2.2516686652    0.1748849399
15   

H        2.1789238065   -1.1892498689   -1.2286817725
C        2.0951788425   -1.1694356688   -0.1455540789
C        3.0879355788   -1.7520523914    0.6479182386
C        2.9802926962   -1.7263005739    2.0444832700
C        1.8762402382   -1.1158776592    2.6690370914
C        0.8843589313   -0.5323201105    1.8529571189
C        0.9934181643   -0.5596764846    0.4585592254
H        0.2192891081   -0.1047047168   -0.1531454190
H        0.0177569997   -0.0501632990    2.2987463091
C        1.7556163487   -1.0842057432    4.1380139996
O        2.6168335977   -1.5726145196    4.8267461092
O        0.6983563091   -0.4452919620    4.6712270085
H        0.6316778721   -0.6531536498    5.6154453424
H        3.7600740741   -2.1822562824    2.6502271895
H        3.9460751004   -2.2257973930    0.1801500916
15   

H        2.1947376643   -1.1718993874   -1.2287321776
C        2.1059675566   -1.1574190847   -0.1459220188
C        3.1015894348   -1.7322259792    0.6496947040
C        2.9872789338   -1.7136386963    2.0458615618
C        1.8733664470   -1.1187168857    2.6677320586
C        0.8783521481   -0.5435259289    1.8495566624
C        0.9943767690   -0.5631389281    0.4556082206
H        0.2175956413   -0.1149158818   -0.1577181334
H        0.0034217780   -0.0748250375    2.2934683230
C        1.7453979085   -1.0948666235    4.1361303246
O        2.6008502046   -1.5892391563    4.8282333557
O        0.6573499088   -0.5109972470    4.6661220628
H        0.6999389110   -0.5653211222    5.6333332705
H        3.7687698690   -2.1642753013    2.6533679650
H        3.9668080408   -2.1948620070    0.1838600034
15   

H        2.2010197084   -1.1492038407   -1.2274064328
C        2.1104208254   -1.1418102920   -0.1446744249
C        3.1112365447   -1.7098219653    0.6492632869
C        2.9944265423   -1.7006827980    2.0452990670
C        1.8725394100   -1.1225803935    2.6688232374
C        0.8720045998   -0.5547052311    1.8522434930
C        0.9908664985   -0.5642973306    0.4584114938
H        0.2097047882   -0.1220706098   -0.1536992693
H       -0.0099524749   -0.1003753179    2.2971459215
C        1.7418525834   -1.1091454935    4.1372193448
O        2.5956212908   -1.6110535645    4.8255198551
O        0.6233568342   -0.5811941972    4.6668987331
H        0.7380839982   -0.4603478616    5.6215896631
H        3.7795956370   -2.1468746069    2.6513540675
H        3.9821602504   -2.1603990577    0.1822333179
15   

H        2.2027591396   -1.1254706650   -1.2237489832
C        2.1119864531   -1.1267717728   -0.1410018841
C        3.1182902250   -1.6905777262    0.6489099746
C        3.0011705516   -1.6929715694    2.0449223042
C        1.8733262558   -1.1310052714    2.6726794981
C        0.8669280239   -0.5678652872    1.8599391637
C        0.9863746948   -0.5655068336    0.4661009666
H        0.2006200038   -0.1273352083   -0.1430453418
H       -0.0206823702   -0.1273978600    2.3074104002
C        1.7425057022   -1.1297618481    4.1413487381
O        2.5948292523   -1.6432847721    4.8216789977
O        0.5999696414   -0.6453359559    4.6728183693
H        0.7515957899   -0.3386902404    5.5778783972
H        3.7904042627   -2.1366303862    2.6475816285
H        3.9935281992   -2.1294359947    0.1787802914
15   

H        2.2025494571   -1.1017994396   -1.2185477511
C        2.1119604074   -1.1138986081   -0.1358432313
C        3.1223537878   -1.6780061749    0.6485579180
C        3.0053981221   -1.6946388761    2.0444573630
C        1.8737408410   -1.1465876412    2.6777393790
C        0.8627863425   -0.5837624897    1.8704145438
C        0.9821792477   -0.5670726883    0.4766520056
H        0.1928827407   -0.1296416081   -0.1284508301
H       -0.0290466989   -0.1557424431    2.3214052266
C        1.7438508674   -1.1595768666    4.1464720475
O        2.5897002815   -1.6921276373    4.8182492012
O        0.5891191364   -0.6919566598    4.6844649821
H        0.7563617458   -0.2017551547    5.4991357891
H        3.7976311431   -2.1389949784    2.6427154028
H        4.0005135607   -2.1064122401    0.1742296592
15   

H        2.1954072362   -1.0662973655   -1.2108889530
C        2.1067050855   -1.0918168532   -0.1282453552
C        3.1239996705   -1.6549422294    0.6478168317
C        3.0094704146   -1.6891811313    2.0435248952
C        1.8734519672   -1.1599723106    2.6850153179
C        0.8549654591   -0.5989056383    1.8860813716
C        0.9721924508   -0.5642334977    0.4924059792
H        0.1772736514   -0.1286322440   -0.1066470693
H       -0.0417493107   -0.1876015118    2.3427214541
C        1.7466811696   -1.1926938506    4.1535312613
O        2.5937540428   -1.7314971790    4.8159724646
O        0.5843044840   -0.7355723178    4.7051138892
H        0.7466948565   -0.0720224771    5.3842213722
H        3.8068218820   -2.1332487977    2.6352664244
H        4.0054769638   -2.0693353035    0.1671776866
15   

H        2.1905533427   -1.0213777152   -1.1987893958
C        2.1017257866   -1.0645374557   -0.1166901428
C        3.1207601845   -1.6369236269    0.6502445673
C        3.0057363847   -1.6948483990    2.0450565476
C        1.8682774775   -1.1791113058    2.6946412034
C        0.8474487316   -0.6093522579    1.9051308812
C        0.9649153308   -0.5516484452    0.5121778892
H        0.1680594616   -0.1106878578   -0.0803915417
H       -0.0525462454   -0.2119797061    2.3675038106
C        1.7415560525   -1.2388603941    4.1617148102
O        2.5707986420   -1.8107868799    4.8154003260
O        0.6010662935   -0.7318610651    4.7354519092
H        0.7746081666    0.0716806668    5.2340629708
H        3.8038353890   -2.1467367594    2.6299719878
H        4.0036939859   -2.0406424892    0.1631602602
15   

H        2.1933469151   -0.9586383429   -1.1807907659
C        2.1027469060   -1.0222377697   -0.0998132570
C        3.1220065658   -1.6065051096    0.6577952290
C        3.0042447569   -1.6921409181    2.0508686354
C        1.8645565035   -1.1913675365    2.7078742598
C        0.8428919121   -0.6102215779    1.9280110718
C        0.9629306824   -0.5253505534    0.5366030858
H        0.1652344178   -0.0773268250   -0.0495705213
H       -0.0614398065   -0.2289032168    2.3953436909
C        1.7335516212   -1.2860274488    4.1720040923
O        2.5470794022   -1.8862187993    4.8167186007
O        0.6300193536   -0.7166803774    4.7707449260
H        0.8012632659    0.1859191574    5.0515072455
H        3.8016459070   -2.1543903671    2.6287649130
H        4.0068074278   -1.9987927184    0.1646984649
15   

H        2.1960895804   -0.8972237331   -1.1598433998
C        2.1040312261   -0.9793168737   -0.0801977814
C        3.1227915445   -1.5758793470    0.6684057350
C        3.0027399004   -1.6868098826    2.0594065573
C        1.8620013551   -1.1980426187    2.7233564729
C        0.8401359737   -0.6051609317    1.9526596696
C        0.9623371083   -0.4955803790    0.5631028780
H        0.1643351050   -0.0402955750   -0.0171125269
H       -0.0679782699   -0.2381046396    2.4240061598
C        1.7266546409   -1.3254933139    4.1840171593
O        2.5229916889   -1.9593575847    4.8163591587
O        0.6772039887   -0.6878346228    4.8066287560
H        0.8181736138    0.2612559474    4.8588873728
H        3.7989584244   -2.1598099746    2.6303654317
H        4.0085825863   -1.9589706454    0.1697875343
15   

H        2.1843404363   -0.8585038907   -1.1414583626
C        2.0944393093   -0.9524777493   -0.0625605773
C        3.1144270817   -1.5581912827    0.6768599060
C        2.9970738009   -1.6852892351    2.0665920597
C        1.8586087150   -1.2025665283    2.7386732253
C        0.8345372189   -0.6014504466    1.9771912714
C        0.9540014509   -0.4761827052    0.5886222645
H        0.1545503895   -0.0157240922    0.0144351125
H       -0.0748126793   -0.2435434301    2.4530332960
C        1.7265393064   -1.3498761132    4.1973771368
O        2.5034087052   -2.0224237029    4.8141474954
O        0.7378277358   -0.6540267079    4.8415011394
H        0.8070926336    0.2927333846    4.6857291610
H        3.7938703130   -2.1658905221    2.6305142973
H        3.9989308537   -1.9362808257    0.1720788651
15   

H        2.1520533905   -0.8482756063   -1.1305627791
C        2.0684937666   -0.9470916359   -0.0515544968
C        3.0909173002   -1.5602974385    0.6780755473
C        2.9820318645   -1.6936411711    2.0677498431
C        1.8506269631   -1.2086324703    2.7499249808
C        0.8228589119   -0.6012409545    1.9982728726
C        0.9337954511   -0.4702615568    0.6093732576
H        0.1322048556   -0.0053553381    0.0417313153
H       -0.0838382632   -0.2448461702    2.4799857803
C        1.7320799397   -1.3605367496    4.2090372779
O        2.4827995999   -2.0780554326    4.8083043997
O        0.8064534336   -0.6146942322    4.8726871738
H        0.7703461006    0.2910990003    4.5467632775
H        3.7808429863   -2.1795036242    2.6244148964
H        3.9709135080   -1.9391137259    0.1659221092
15   

H        2.1035415415   -0.8646286493   -1.1265437949
C        2.0300408048   -0.9617939282   -0.0466278635
C        3.0550502671   -1.5823991764    0.6727838353
C        2.9596746192   -1.7128953417    2.0635328881
C        1.8404387745   -1.2166119097    2.7574718980
C        0.8086972573   -0.6029955874    2.0161161538
C        0.9059913630   -0.4755135536    0.6256824388
H        0.1023779242   -0.0055416102    0.0650789143
H       -0.0911356601   -0.2393851613    2.5047546657
C        1.7446312744   -1.3600023303    4.2189677666
O        2.4629322401   -2.1234549509    4.8019628397
O        0.8796504269   -0.5710367319    4.8998210819
H        0.7136785513    0.2641547569    4.4462994831
H        3.7610397352   -2.2030784830    2.6128133907
H        3.9270137146   -1.9683356288    0.1521966785
15   

H        2.0484433772   -0.9003523833   -1.1277881380
C        1.9860722004   -0.9912414406   -0.0466106421
C        3.0102770626   -1.6233620243    0.6635263367
C        2.9298947261   -1.7445638605    2.0558714685
C        1.8279125765   -1.2263758818    2.7613042722
C        0.7957854526   -0.6018329649    2.0292913562
C        0.8777016099   -0.4846833848    0.6367647208
H        0.0748887169   -0.0056559544    0.0827089233
H       -0.0926143934   -0.2202421061    2.5243563482
C        1.7595380070   -1.3521456080    4.2260588572
O        2.4386596347   -2.1607815522    4.7957903969
O        0.9540626887   -0.5217672158    4.9195987469
H        0.6435407285    0.2201966115    4.3848134531
H        3.7315962538   -2.2416611389    2.5984972975
H        3.8706620717   -2.0241540172    0.1349040234
15   

H        1.9917899560   -0.9392929376   -1.1330659978
C        1.9428043070   -1.0198673483   -0.0503773169
C        2.9616858766   -1.6703975957    0.6501046796
C        2.8991572844   -1.7770348924    2.0443349561
C        1.8214332977   -1.2257544423    2.7626950000
C        0.7944330966   -0.5812696197    2.0399400155
C        0.8580557775   -0.4798270454    0.6450023942
H        0.0601662333    0.0153244807    0.0980785078
H       -0.0754951931   -0.1674591379    2.5406507072
C        1.7842938436   -1.3319329438    4.2312348889
O        2.4463763271   -2.1623277464    4.7902588936
O        1.0071194014   -0.4880788124    4.9361972834
H        0.5258321485    0.1307977126    4.3713620098
H        3.6984676598   -2.2865872399    2.5789346155
H        3.8049735412   -2.0954905641    0.1129511434
