15   

H        1.8844834698   -1.1974151638   -1.1372587899
C        1.8989256997   -1.1491107458   -0.0516465857
C        2.9606298396   -1.7132818066    0.6606466204
C        2.9827071301   -1.6488161127    2.0589071350
C        1.9377000047   -1.0273828052    2.7676383278
C        0.8787642764   -0.4514142107    2.0340865686
C        0.8609358134   -0.5150117688    0.6358009563
H        0.0425688895   -0.0641650146    0.0808537806
H        0.0688491306    0.0724068887    2.5336905218
C        1.9680897212   -0.9741908872    4.2380961931
O        2.9986689886   -1.1458832446    4.8281131912
O        0.8177008376   -0.7689023661    4.9117254249
H        0.0392105000   -0.8750360873    4.3499263529
H        3.8160618677   -2.0885564555    2.6033538308
H        3.7727304284   -2.2015721441    0.1292302391
15   

H        1.8836706345   -1.2630043015   -1.1392464178
C        1.8975116055   -1.2018985996   -0.0542872547
C        2.9496599956   -1.7733325542    0.6666809495
C        2.9716331635   -1.6911810201    2.0642060721
C        1.9362431973   -1.0429558525    2.7629974505
C        0.8870029136   -0.4610394424    2.0206420482
C        0.8685928516   -0.5432244593    0.6235267949
H        0.0576303605   -0.0865615552    0.0625069632
H        0.0863567120    0.0823185296    2.5150175234
C        1.9669692172   -0.9570638609    4.2318026208
O        2.9798986341   -1.1865614993    4.8318058916
O        0.8201798788   -0.6788194542    4.8963881059
H        0.0378185925   -0.9607088413    4.4072844056
H        3.7987823554   -2.1346451334    2.6149678106
H        3.7551657298   -2.2797015348    0.1422486648
15   

H        1.8958443989   -1.3125186969   -1.1453668806
C        1.9057372712   -1.2419866423   -0.0609624165
C        2.9499757639   -1.8156683709    0.6699180258
C        2.9671754949   -1.7205281849    2.0668730188
C        1.9351388727   -1.0554444194    2.7547956441
C        0.8935579673   -0.4730743705    2.0023553933
C        0.8794305606   -0.5687280944    0.6062336311
H        0.0740190984   -0.1107377928    0.0383781662
H        0.0955342830    0.0802622953    2.4903523374
C        1.9609908645   -0.9456829309    4.2222495775
O        2.9519525252   -1.2278115673    4.8353835352
O        0.8187592339   -0.5923984266    4.8733959186
H        0.0425716754   -1.0278574338    4.5047499681
H        3.7891106352   -2.1644911357    2.6248668338
H        3.7535223642   -2.3330268831    0.1533434098
15   

H        1.9219813792   -1.3339146932   -1.1566104511
C        1.9244044566   -1.2605766743   -0.0723829036
C        2.9607600413   -1.8366342631    0.6679760639
C        2.9681676594   -1.7376375407    2.0649104105
C        1.9345604984   -1.0648832070    2.7430511121
C        0.9005062025   -0.4818512264    1.9810000115
C        0.8957420868   -0.5817129885    0.5852590416
H        0.0953983187   -0.1228661767    0.0110252558
H        0.0999425352    0.0732067274    2.4631297566
C        1.9493363838   -0.9460740059    4.2102333606
O        2.9157964688   -1.2750075839    4.8379326195
O        0.8161977537   -0.5119863117    4.8460295134
H        0.0570666120   -1.0666835643    4.6424416260
H        3.7843974177   -2.1830246151    2.6299501838
H        3.7659049220   -2.3585437842    0.1586090759
15   

H        1.9614580247   -1.3224465926   -1.1733832428
C        1.9526679343   -1.2536314857   -0.0889313494
C        2.9803768404   -1.8339760426    0.6601889745
C        2.9726457651   -1.7413465404    2.0576729050
C        1.9329469325   -1.0694638650    2.7274544319
C        0.9072872764   -0.4834589060    1.9565384433
C        0.9172677695   -0.5772572872    0.5605042981
H        0.1222401279   -0.1165823530   -0.0195396922
H        0.0997799241    0.0659278820    2.4336918870
C        1.9291472176   -0.9585095122    4.1957072780
O        2.8728462897   -1.3253088097    4.8365547622
O        0.8133990387   -0.4410092316    4.8144934309
H        0.0849154923   -1.0676539482    4.8165609711
H        3.7819472922   -2.1906359335    2.6293871150
H        3.7902634982   -2.3546296794    0.1571897480
15   

H        2.0124585158   -1.2864735806   -1.1912251695
C        1.9887786175   -1.2287928139   -0.1063851691
C        3.0061126499   -1.8165486469    0.6511131980
C        2.9781670972   -1.7394096231    2.0493705437
C        1.9290746866   -1.0744497968    2.7116039990
C        0.9136948494   -0.4819152925    1.9321024433
C        0.9434564486   -0.5606543512    0.5354840689
H        0.1548946361   -0.0960773963   -0.0501631356
H        0.0962642976    0.0568936580    2.4044492250
C        1.8997871848   -0.9847667810    4.1816034081
O        2.8238412094   -1.3846559978    4.8327016725
O        0.8135931305   -0.3839986397    4.7813436128
H        0.1343853978   -1.0226276622    5.0130069205
H        3.7788218122   -2.1957620295    2.6274551091
H        3.8230911396   -2.3317506212    0.1541025155
15   

H        2.0645111632   -1.2497954832   -1.2060671040
C        2.0244659339   -1.2045480346   -0.1211519336
C        3.0313898400   -1.7988832121    0.6450828985
C        2.9814294648   -1.7388949008    2.0436505635
C        1.9210676395   -1.0834349729    2.6976863667
C        0.9160147225   -0.4850841118    1.9090875459
C        0.9674154630   -0.5471101536    0.5123209610
H        0.1854410721   -0.0791789513   -0.0793888351
H        0.0874524384    0.0417457702    2.3755845636
C        1.8644636305   -1.0161122555    4.1688072952
O        2.7727895320   -1.4447172497    4.8270557774
O        0.8119089140   -0.3497498152    4.7476210989
H        0.2118246188   -0.9482730340    5.2015791505
H        3.7735112858   -2.2016891105    2.6282180119
H        3.8568793065   -2.3067082917    0.1546820759
15   

H        2.1054554515   -1.2293259178   -1.2160851193
C        2.0505416974   -1.1936113785   -0.1314905316
C        3.0484469366   -1.7918754186    0.6434522061
C        2.9786902293   -1.7449736997    2.0417456434
C        1.9079301455   -1.0974984278    2.6870042050
C        0.9117464405   -0.4960133966    1.8893577686
C        0.9825206718   -0.5455267415    0.4930000746
H        0.2062961282   -0.0760462631   -0.1049735334
H        0.0733127491    0.0209126220    2.3493631906
C        1.8283876185   -1.0446254665    4.1582480503
O        2.7179557128   -1.5064188120    4.8231435473
O        0.8069598146   -0.3320784798    4.7179659736
H        0.3143662119   -0.8554760994    5.3592634566
H        3.7635634791   -2.2116550407    2.6327667782
H        3.8820057050   -2.2931101516    0.1600462360
15   

H        2.1395047281   -1.2160588842   -1.2221904938
C        2.0722339645   -1.1859003796   -0.1381393207
C        3.0670517974   -1.7782352256    0.6453618954
C        2.9811060038   -1.7386712203    2.0430523413
C        1.8969712395   -1.1044976593    2.6790794908
C        0.9035575082   -0.5098841569    1.8727678372
C        0.9906961430   -0.5516460234    0.4771425257
H        0.2160953055   -0.0875821007   -0.1271112048
H        0.0537534162   -0.0056972299    2.3261863791
C        1.7990665535   -1.0595178949    4.1496603314
O        2.6824184080   -1.5241133775    4.8236025509
O        0.7732467616   -0.3583028982    4.6950932323
H        0.4261062690   -0.8001900064    5.4800685747
H        3.7633070884   -2.2012081233    2.6407305553
H        3.9105118825   -2.2695253843    0.1690293518
15   

H        2.1597670316   -1.2034020283   -1.2262338360
C        2.0832701940   -1.1788292440   -0.1426623998
C        3.0755124015   -1.7681170570    0.6464386640
C        2.9774412874   -1.7359866952    2.0435510249
C        1.8837179425   -1.1121822197    2.6732773963
C        0.8926047349   -0.5213434340    1.8614183745
C        0.9918879970   -0.5555295332    0.4664158551
H        0.2186526554   -0.0946704069   -0.1420083412
H        0.0346198104   -0.0271851616    2.3105995522
C        1.7732893668   -1.0739759448    4.1431246634
O        2.6438080444   -1.5545251973    4.8245058725
O        0.7399032048   -0.3917489861    4.6808940055
H        0.5371981302   -0.7272174910    5.5654997440
H        3.7573418658   -2.1965583447    2.6456723403
H        3.9261423652   -2.2515728005    0.1748888773
15   

H        2.1789652174   -1.1891814184   -1.2286799259
C        2.0952145860   -1.1693764193   -0.1455525016
C        3.0879669874   -1.7520001760    0.6479200746
C        2.9803155538   -1.7262624194    2.0444847157
C        1.8762585820   -1.1158469820    2.6690378938
C        0.8843825016   -0.5322808694    1.8529576753
C        0.9934502912   -0.5596231789    0.4585601839
H        0.2193240220   -0.1046469310   -0.1531446531
H        0.0177760913   -0.0501315916    2.2987463066
C        1.7556163487   -1.0842057432    4.1380139996
O        2.6168335977   -1.5726145196    4.8267461092
O        0.6983563091   -0.4452919620    4.6712270085
H        0.6316778721   -0.6531536498    5.6154453424
H        3.7600918681   -2.1822266307    2.6502287453
H        3.9461087709   -2.2257415231    0.1801523836
15   

H        2.1947375288   -1.1718994113   -1.2287321663
C        2.1059674399   -1.1574191061   -0.1459220075
C        3.1015893189   -1.7322260361    0.6496946879
C        2.9872788565   -1.7136387478    2.0458615442
C        1.8733664095   -1.1187168981    2.6677320649
C        0.8783521095   -0.5435259052    1.8495567004
C        0.9943766890   -0.5631389065    0.4556082579
H        0.2175955634   -0.1149158230   -0.1577180692
H        0.0034217725   -0.0748249754    2.2934683865
C        1.7453979085   -1.0948666235    4.1361303246
O        2.6008502046   -1.5892391563    4.8282333557
O        0.6573499088   -0.5109972470    4.6661220628
H        0.6999389110   -0.5653211222    5.6333332705
H        3.7687697887   -2.1642753716    2.6533679368
H        3.9668079012   -2.1948620905    0.1838599690
15   

H        2.2009834947   -1.1492756614   -1.2274090827
C        2.1103894469   -1.1418723576   -0.1446767378
C        3.1112087407   -1.7098768063    0.6492616385
C        2.9944061823   -1.7007228252    2.0452979548
C        1.8725231455   -1.1226123414    2.6688220320
C        0.8719839340   -0.5547459871    1.8522415287
C        0.9908383856   -0.5643529059    0.4584090044
H        0.2096744109   -0.1221308050   -0.1537022086
H       -0.0099690347   -0.1004080761    2.2971439290
C        1.7418525834   -1.1091454935    4.1372193448
O        2.5956212908   -1.6110535645    4.8255198551
O        0.6233568342   -0.5811941972    4.6668987331
H        0.7380839982   -0.4603478616    5.6215896631
H        3.7795797218   -2.1469059590    2.6513535732
H        3.9821304312   -2.1604579598    0.1822318348
15   

H        2.2027007623   -1.1255953340   -1.2237543384
C        2.1119357993   -1.1268794684   -0.1410065725
C        3.1182452831   -1.6906728052    0.6489070240
C        3.0011375601   -1.6930409387    2.0449204302
C        1.8732998413   -1.1310606815    2.6726770489
C        0.8668945614   -0.5679360080    1.8599347669
C        0.9863292752   -0.5656032895    0.4660955280
H        0.2005709966   -0.1274397346   -0.1430519583
H       -0.0207091423   -0.1274547376    2.3074056535
C        1.7425057022   -1.1297618481    4.1413487381
O        2.5948292523   -1.6432847721    4.8216789977
O        0.5999696414   -0.6453359559    4.6728183693
H        0.7515957899   -0.3386902404    5.5778783972
H        3.7903785325   -2.1366847123    2.6475812980
H        3.9934800711   -2.1295381126    0.1787779937
15   

H        2.2024867384   -1.1019346850   -1.2185548653
C        2.1119060150   -1.1140154885   -0.1358494468
C        3.1223054396   -1.6781096241    0.6485535863
C        3.0053626354   -1.6947144812    2.0444544705
C        1.8737125423   -1.1466478681    2.6777361575
C        0.8627505700   -0.5838390912    1.8704091866
C        0.9821305984   -0.5671771701    0.4766452438
H        0.1928302896   -0.1297546357   -0.1284588097
H       -0.0290752110   -0.1558038485    2.3213998070
C        1.7438508674   -1.1595768666    4.1464720475
O        2.5897002815   -1.6921276373    4.8182492012
O        0.5891191364   -0.6919566598    4.6844649821
H        0.7563617458   -0.2017551547    5.4991357891
H        3.7976033712   -2.1390544648    2.6427142388
H        4.0004617028   -2.1065234717    0.1742258753
15   

H        2.1953668035   -1.0663855411   -1.2108946385
C        2.1066700421   -1.0918930554   -0.1282503195
C        3.1239684779   -1.6550098098    0.6478130776
C        3.0094475430   -1.6892305324    2.0435222875
C        1.8734337830   -1.1600115650    2.6850127360
C        0.8549425088   -0.5989554404    1.8860774165
C        0.9721611783   -0.5643014841    0.4924008835
H        0.1772399552   -0.1287057056   -0.1066529294
H       -0.0417675361   -0.1876412995    2.3427177511
C        1.7466811696   -1.1926938506    4.1535312613
O        2.5937540428   -1.7314971790    4.8159724646
O        0.5843044840   -0.7355723178    4.7051138892
H        0.7466948565   -0.0720224771    5.3842213722
H        3.8068039420   -2.1332877751    2.6352649723
H        4.0054434325   -2.0694080936    0.1671741474
15   

H        2.1905556318   -1.0213731130   -1.1987889837
C        2.1017277690   -1.0645334778   -0.1166897839
C        3.1207619424   -1.6369201106    0.6502448809
C        3.0057376730   -1.6948458316    2.0450567802
C        1.8682785116   -1.1791092468    2.6946413880
C        0.8474500433   -0.6093496292    1.9051311161
C        0.9649171042   -0.5516448817    0.5121782069
H        0.1680613717   -0.1106840154   -0.0803912022
H       -0.0525451862   -0.2119775796    2.3675039875
C        1.7415560525   -1.2388603941    4.1617148102
O        2.5707986420   -1.8107868799    4.8154003260
O        0.6010662935   -0.7318610651    4.7354519092
H        0.7746081666    0.0716806668    5.2340629708
H        3.8038363891   -2.1467347619    2.6299721733
H        4.0036958711   -2.0406387184    0.1631605904
15   

H        2.1933870894   -0.9585727711   -1.1807831183
C        2.1027813423   -1.0221809580   -0.0998066046
C        3.1220369505   -1.6064544619    0.6578026077
C        3.0042666881   -1.6921037052    2.0508744943
C        1.8645737327   -1.1913380406    2.7078777831
C        0.8429139498   -0.6101844628    1.9280139305
C        0.9629612023   -0.5252999571    0.5366075322
H        0.1652676225   -0.0772723729   -0.0495667971
H       -0.0614222381   -0.2288738162    2.3953442163
C        1.7335516212   -1.2860274488    4.1720040923
O        2.5470794022   -1.8862187993    4.8167186007
O        0.6300193536   -0.7166803774    4.7707449260
H        0.8012632659    0.1859191574    5.0515072455
H        3.8016632194   -2.1543608673    2.6287709806
H        4.0068403676   -1.9987381754    0.1647073334
15   

H        2.1961090971   -0.8971967511   -1.1598394473
C        2.1040478864   -0.9792934400   -0.0801943402
C        3.1228062077   -1.5758583671    0.6684099611
C        3.0027504233   -1.6867943915    2.0594100072
C        1.8620095823   -1.1980303406    2.7233583241
C        0.8401465409   -0.6051455765    1.9526607394
C        0.9623518270   -0.4955595161    0.5631047726
H        0.1643511733   -0.0402731939   -0.0171113070
H       -0.0679698248   -0.2380925125    2.4240056701
C        1.7266546409   -1.3254933139    4.1840171593
O        2.5229916889   -1.9593575847    4.8163591587
O        0.6772039887   -0.6878346228    4.8066287560
H        0.8181736138    0.2612559474    4.8588873728
H        3.7989667686   -2.1597976526    2.6303692946
H        4.0085985516   -1.9589480607    0.1697928409
15   

H        2.1842933408   -0.8585598310   -1.1414677147
C        2.0943992670   -0.9525263890   -0.0625687089
C        3.1143918434   -1.5582351237    0.6768490070
C        2.9970486318   -1.6853217334    2.0665829835
C        1.8585892229   -1.2025921224    2.7386688443
C        0.8345121771   -0.6014820933    1.9771896989
C        0.9539662884   -0.4762257648    0.5886187131
H        0.1545119539   -0.0157700410    0.0144338270
H       -0.0748326026   -0.2435680655    2.4530361914
C        1.7265393064   -1.3498761132    4.1973771368
O        2.5034087052   -2.0224237029    4.8141474954
O        0.7378277358   -0.6540267079    4.8415011394
H        0.8070926336    0.2927333846    4.6857291610
H        3.7938502017   -2.1659165999    2.6305035601
H        3.9988923034   -1.9363281434    0.1720647465
15   

H        2.1519533236   -0.8483794611   -1.1305808185
C        2.0684088678   -0.9471821744   -0.0515701434
C        3.0908426396   -1.5603793479    0.6780526225
C        2.9819786565   -1.6937021930    2.0677304353
C        1.8505858627   -1.2086806033    2.7499165987
C        0.8228060692   -0.6013000957    1.9982719667
C        0.9337210560   -0.4703417168    0.6093684497
H        0.1321234198   -0.0054405937    0.0417323406
H       -0.0838803527   -0.2448921030    2.4799952590
C        1.7320799397   -1.3605367496    4.2090372779
O        2.4827995999   -2.0780554326    4.8083043997
O        0.8064534336   -0.6146942322    4.8726871738
H        0.7703461006    0.2910990003    4.5467632775
H        3.7808003780   -2.1795526849    2.6243907661
H        3.9708316629   -1.9392020425    0.1658915252
15   

H        2.1034334392   -0.8647271797   -1.1265602108
C        2.0299492392   -0.9618800956   -0.0466420431
C        3.0549698695   -1.5824772074    0.6727605338
C        2.9596175022   -1.7129537326    2.0635128248
C        1.8403947329   -1.2166582385    2.7574644448
C        0.8086404455   -0.6030524522    2.0161180994
C        0.9059111847   -0.4755901576    0.6256807107
H        0.1022899852   -0.0056230130    0.0650843606
H       -0.0911810937   -0.2394296231    2.5047682540
C        1.7446312744   -1.3600023303    4.2189677666
O        2.4629322401   -2.1234549509    4.8019628397
O        0.8796504269   -0.5710367319    4.8998210819
H        0.7136785513    0.2641547569    4.4462994831
H        3.7609940133   -2.2031253329    2.6127870671
H        3.9269254658   -1.9684195089    0.1521644958
15   

H        2.0483745462   -0.9004080851   -1.1277963971
C        1.9860139595   -0.9912902665   -0.0466177118
C        3.0102262168   -1.6234057814    0.6635129542
C        2.9298587257   -1.7445966337    2.0558597582
C        1.8278846532   -1.2264024054    2.7613007029
C        0.7957491425   -0.6018659407    2.0292943232
C        0.8776503998   -0.4847274249    0.6367657277
H        0.0748323227   -0.0057030865    0.0827148160
H       -0.0926437568   -0.2202685361    2.5243667055
C        1.7595380070   -1.3521456080    4.2260588572
O        2.4386596347   -2.1607815522    4.7957903969
O        0.9540626887   -0.5217672158    4.9195987469
H        0.6435407285    0.2201966115    4.3848134531
H        3.7315676800   -2.2416869214    2.5984810730
H        3.8706063995   -2.0242005609    0.1348848531
15   

H        1.9917913308   -0.9392917849   -1.1330658628
C        1.9428054716   -1.0198663410   -0.0503772020
C        2.9616869058   -1.6703966774    0.6501049134
C        2.8991580312   -1.7770341994    2.0443351627
C        1.8214338653   -1.2257539058    2.7626950561
C        0.7944338150   -0.5812689681    2.0399399518
C        0.8580567930   -0.4798261552    0.6450023639
H        0.0601673474    0.0153254269    0.0980783835
H       -0.0754946258   -0.1674586364    2.5406505090
C        1.7842938436   -1.3319329438    4.2312348889
O        2.4463763271   -2.1623277464    4.7902588936
O        1.0071194014   -0.4880788124    4.9361972834
H        0.5258321485    0.1307977126    4.3713620098
H        3.6984682790   -2.2865866616    2.5789349061
H        3.8049746697   -2.0954895760    0.1129514800
