15   

H        2.1271734627   -1.0610761085   -1.2209000614
C        1.9701879854   -1.0475306459   -0.1458256034
C        3.0517399949   -1.2090819840    0.7250415150
C        2.8496035073   -1.1921327329    2.1114852719
C        1.5750217493   -1.0076583079    2.6408529889
C        0.4892273788   -0.8565668131    1.7591057643
C        0.6850900218   -0.8725848402    0.3736022051
H       -0.1620525896   -0.7512160833   -0.2955417161
H       -0.5139387186   -0.7261740473    2.1592543677
C        1.3363139185   -1.0078945632    4.1002347776
O        0.2532049108   -1.1124393342    4.6203504509
O        2.4619677018   -0.8943821828    4.8444944972
H        2.1477969118   -0.9106861241    5.7603535024
H        3.7100954654   -1.3264421235    2.7621010018
H        4.0522035411   -1.3500578524    0.3259820437
15   

H        2.1246472960   -1.0335676717   -1.2187905066
C        1.9683865471   -1.0309926109   -0.1435297992
C        3.0460703760   -1.2339596805    0.7240858402
C        2.8439185366   -1.2315988433    2.1105081007
C        1.5758451323   -1.0141948099    2.6412102956
C        0.4920431749   -0.8312814094    1.7648196950
C        0.6874089278   -0.8324312260    0.3789792007
H       -0.1568539424   -0.6835923486   -0.2882414817
H       -0.5072725643   -0.6894836292    2.1703958357
C        1.3412519635   -1.0533571554    4.1018528964
O        0.3073808204   -1.3862309155    4.6242305881
O        2.4261711917   -0.7149007191    4.8376100854
H        2.1290451263   -0.7916125960    5.7560133840
H        3.6941522567   -1.4007106509    2.7666543599
H        4.0421658803   -1.3970849616    0.3225687267
15   

H        2.1177431344   -1.0081096086   -1.2164901164
C        1.9639218905   -1.0165900545   -0.1409080563
C        3.0381700540   -1.2616044448    0.7207711839
C        2.8382667866   -1.2736982318    2.1073376471
C        1.5785392440   -1.0245961847    2.6418248852
C        0.4961126315   -0.8062936622    1.7737735738
C        0.6889138944   -0.7926177602    0.3874299060
H       -0.1526154387   -0.6144555085   -0.2760297443
H       -0.4981077267   -0.6504705875    2.1861041196
C        1.3535862452   -1.0994281784    4.1052591957
O        0.4186322885   -1.6454844608    4.6319319426
O        2.3541333520   -0.5472847680    4.8298364221
H        2.0881509371   -0.6791118380    5.7514194220
H        3.6787826934   -1.4750822583    2.7669420425
H        4.0284889462   -1.4467074926    0.3145410750
15   

H        2.1067586565   -0.9837344315   -1.2155328066
C        1.9581488583   -1.0062315185   -0.1394204046
C        3.0296469160   -1.2973336320    0.7117965574
C        2.8360211088   -1.3272371152    2.0988945858
C        1.5870224546   -1.0499659896    2.6422061447
C        0.5058384101   -0.7862552632    1.7866920661
C        0.6923813402   -0.7543644872    0.3996199514
H       -0.1466354336   -0.5407648432   -0.2565031707
H       -0.4808956946   -0.6098538783    2.2079200348
C        1.3771912808   -1.1498826846    4.1105338262
O        0.5893811345   -1.8830960933    4.6473983084
O        2.2370567993   -0.3838101524    4.8190275538
H        2.0116230397   -0.5557797200    5.7446684326
H        3.6699107151   -1.5622609132    2.7556354932
H        4.0120815098   -1.5040915680    0.2969651259
15   

H        2.0896328462   -0.9507970513   -1.2157594638
C        1.9514567018   -0.9933201633   -0.1388611366
C        3.0217368464   -1.3390517328    0.6934669652
C        2.8415329041   -1.3943200049    2.0815640886
C        1.6068408550   -1.0943136274    2.6431597313
C        0.5275817925   -0.7671175666    1.8080125405
C        0.7008672002   -0.7096803451    0.4199554969
H       -0.1361630492   -0.4497551911   -0.2218173022
H       -0.4463828669   -0.5603790175    2.2442917907
C        1.4183718898   -1.2028539988    4.1181781231
O        0.8236936331   -2.0837055336    4.6786978889
O        2.0538756837   -0.2230828155    4.7977098512
H        1.8716564820   -0.4128173186    5.7292542040
H        3.6732219915   -1.6688499998    2.7254210406
H        3.9926307540   -1.5674592650    0.2631027728
15   

H        2.0780868723   -0.9098248469   -1.2148586162
C        1.9525835254   -0.9734706908   -0.1374505139
C        3.0178275780   -1.3854871973    0.6707002846
C        2.8537545594   -1.4680159714    2.0594546257
C        1.6377601395   -1.1415041076    2.6452017903
C        0.5679591466   -0.7298469065    1.8353317970
C        0.7247766951   -0.6452632802    0.4467129143
H       -0.1065118658   -0.3263710439   -0.1756232642
H       -0.3858865406   -0.4777537050    2.2914383291
C        1.4730089987   -1.2405544486    4.1258747246
O        1.1012532053   -2.2147593928    4.7218263265
O        1.7928661331   -0.0917309878    4.7602209359
H        1.6470278194   -0.2803551428    5.6983165642
H        3.6824125382   -1.7907054559    2.6845548229
H        3.9726394241   -1.6427917323    0.2210765905
15   

H        2.0619300380   -0.8790494433   -1.2142884232
C        1.9514689017   -0.9557137863   -0.1360819023
C        3.0114372516   -1.4250709554    0.6471003819
C        2.8664447572   -1.5247666222    2.0368281587
C        1.6710777304   -1.1693990617    2.6487218174
C        0.6126023919   -0.6836219926    1.8642054520
C        0.7500734349   -0.5820558565    0.4747114120
H       -0.0749029340   -0.2118188018   -0.1272487116
H       -0.3175967632   -0.3865709844    2.3416220976
C        1.5383119488   -1.2544280516    4.1318157707
O        1.4097146879   -2.2666544531    4.7662480239
O        1.5123005367   -0.0369475967    4.7172106493
H        1.4075082346   -0.2213766015    5.6616545777
H        3.6920747462   -1.8895828883    2.6426977098
H        3.9478265584   -1.7126184769    0.1774794357
15   

H        2.0487282710   -0.8846210696   -1.2172488963
C        1.9501732976   -0.9588595819   -0.1377204863
C        3.0022850063   -1.4686811875    0.6303329523
C        2.8726607065   -1.5653425127    2.0217252364
C        1.6979208442   -1.1710126480    2.6518016138
C        0.6503152292   -0.6382454109    1.8810806443
C        0.7728985450   -0.5398082805    0.4900044737
H       -0.0447275584   -0.1354385358   -0.0998981994
H       -0.2602933362   -0.3018335260    2.3702923935
C        1.5964290045   -1.2427548451    4.1339544843
O        1.7085418184   -2.2410864406    4.7950790157
O        1.2701423472   -0.0543672530    4.6902017411
H        1.2142102254   -0.2364193324    5.6393667883
H        3.6927049477   -1.9612305528    2.6159929646
H        3.9210358542   -1.7898442170    0.1478198316
15   

H        2.0333482149   -0.9131398820   -1.2227800041
C        1.9445723271   -0.9746811002   -0.1416053856
C        2.9880041273   -1.5117232693    0.6193108937
C        2.8713850995   -1.5919213787    2.0127836059
C        1.7174240984   -1.1528007744    2.6543384806
C        0.6776825361   -0.5944717612    1.8881686859
C        0.7885130638   -0.5127326374    0.4950170285
H       -0.0224194911   -0.0880491759   -0.0898372137
H       -0.2191297193   -0.2253041531    2.3794632664
C        1.6441545613   -1.2154775829    4.1344176728
O        1.9849076384   -2.1537229375    4.8074671940
O        1.0718746400   -0.1194489604    4.6837195053
H        1.0708139011   -0.2971121037    5.6354747056
H        3.6854929492   -2.0098007152    2.6006347214
H        3.8902879278   -1.8671373844    0.1297716605
15   

H        2.0177214903   -0.9530386704   -1.2296521046
C        1.9381291356   -0.9963333600   -0.1468787851
C        2.9725888474   -1.5530641190    0.6115626632
C        2.8683765349   -1.6096800419    2.0070876944
C        1.7361895746   -1.1234446828    2.6558132027
C        0.7023970954   -0.5507018109    1.8890972598
C        0.8022460981   -0.4928422174    0.4939286895
H       -0.0027080125   -0.0551391775   -0.0896011367
H       -0.1835729411   -0.1515384229    2.3766152373
C        1.6838699788   -1.1792633719    4.1339537702
O        2.2303402313   -2.0124054923    4.8120087637
O        0.9059724957   -0.2185084364    4.6851733798
H        0.9568723330   -0.3830064197    5.6380261777
H        3.6777040778   -2.0441231999    2.5899185135
H        3.8587784967   -1.9425880324    0.1185777591
15   

H        1.9967623020   -0.9985489949   -1.2355066784
C        1.9271955105   -1.0218995592   -0.1514282941
C        2.9532645926   -1.5945607187    0.6058808611
C        2.8626774277   -1.6251127168    2.0031200482
C        1.7537231703   -1.0925346466    2.6572694761
C        0.7245635308   -0.5100196673    1.8889142555
C        0.8119452006   -0.4783033953    0.4920856392
H        0.0122839566   -0.0302805082   -0.0909041302
H       -0.1498627090   -0.0810755123    2.3718313686
C        1.7167859944   -1.1395533839    4.1348693982
O        2.4373567390   -1.8226228019    4.8195694351
O        0.7649311010   -0.3497073184    4.6851518937
H        0.8588009990   -0.4876082000    5.6390228417
H        3.6683853433   -2.0734523585    2.5805920360
H        3.8229864676   -2.0170559031    0.1107123087
15   

H        1.9716838126   -1.0475019024   -1.2388639958
C        1.9132133621   -1.0499015198   -0.1538816195
C        2.9316319788   -1.6363231837    0.6029275460
C        2.8559176633   -1.6392787990    2.0013721641
C        1.7711758701   -1.0614683951    2.6583320889
C        0.7462428365   -0.4710201759    1.8892632602
C        0.8193502583   -0.4666599379    0.4912754660
H        0.0247347068   -0.0093774976   -0.0914311806
H       -0.1134980009   -0.0118416480    2.3706635266
C        1.7452535820   -1.0947464362    4.1362315885
O        2.6010901807   -1.5895811598    4.8276185173
O        0.6531705573   -0.5093032152    4.6816360768
H        0.7779856648   -0.6089903756    5.6367401841
H        3.6566943187   -2.0997823843    2.5761518013
H        3.7841533927   -2.0910886552    0.1064278024
15   

H        1.9428083721   -1.0963256954   -1.2386207542
C        1.8962409105   -1.0779957593   -0.1532147375
C        2.9074102847   -1.6776606533    0.6032335786
C        2.8472829559   -1.6530115717    2.0022310415
C        1.7877701653   -1.0308317694    2.6592356365
C        0.7669194443   -0.4332575438    1.8913605274
C        0.8243409796   -0.4558362812    0.4928024550
H        0.0346412342    0.0102407850   -0.0896116261
H       -0.0752432337    0.0541578580    2.3761403919
C        1.7680236527   -1.0466950957    4.1378279895
O        2.7114770644   -1.3258307833    4.8353945750
O        0.5776515096   -0.6891161799    4.6743416130
H        0.7186255307   -0.7416489915    5.6309317174
H        3.6406252428   -2.1237622651    2.5789886772
H        3.7419411990   -2.1639322253    0.1060330877
15   

H        1.9153640769   -1.1385419166   -1.2355605121
C        1.8803414188   -1.1010626452   -0.1502144145
C        2.8824905193   -1.7163504160    0.6063618041
C        2.8371716160   -1.6662333475    2.0052864486
C        1.8045831785   -0.9994947031    2.6597614547
C        0.7894773125   -0.3928857761    1.8941242459
C        0.8314071575   -0.4399933859    0.4956123011
H        0.0476218104    0.0360742004   -0.0866954484
H       -0.0337941330    0.1199069192    2.3852615719
C        1.7840533419   -0.9976994261    4.1397371598
O        2.7616547916   -1.0494982360    4.8426783265
O        0.5419984376   -0.8781426765    4.6641638918
H        0.6825569005   -0.8801518230    5.6221921341
H        3.6205535811   -2.1476980968    2.5866194690
H        3.6978777747   -2.2341902664    0.1092897731
15   

H        1.8897885588   -1.1733116014   -1.2310667784
C        1.8653335261   -1.1182843198   -0.1461792323
C        2.8555595886   -1.7517523464    0.6116652816
C        2.8236111673   -1.6785019759    2.0100256110
C        1.8194261163   -0.9679417384    2.6602269800
C        0.8133159979   -0.3486615690    1.8959988871
C        0.8408644568   -0.4178541447    0.4980397608
H        0.0649308692    0.0702588538   -0.0847937536
H        0.0095145258    0.1890701812    2.3926628241
C        1.7934632355   -0.9448832003    4.1430370010
O        2.7502839752   -0.7666230362    4.8516483970
O        0.5468180079   -1.0710143218    4.6534115523
H        0.6708106766   -1.0220421739    5.6123853931
H        3.5954065030   -2.1730652280    2.5954338509
H        3.6506068962   -2.3015119779    0.1159354797
15   

H        1.8737392615   -1.2017563707   -1.2273502328
C        1.8548439827   -1.1316266783   -0.1432234773
C        2.8264986175   -1.7872614824    0.6201856267
C        2.8015836751   -1.6941567534    2.0176222523
C        1.8244835839   -0.9416422295    2.6591073548
C        0.8359083679   -0.3018935724    1.8917938474
C        0.8555568201   -0.3900064600    0.4947757767
H        0.0933596881    0.1148178394   -0.0919272650
H        0.0524910947    0.2650285850    2.3883476712
C        1.7910699962   -0.8900048866    4.1451899715
O        2.6770102737   -0.4859195492    4.8509845332
O        0.5974156023   -1.2735572143    4.6513676785
H        0.6959100245   -1.1757394235    5.6094471000
H        3.5577835864   -2.2057505673    2.6082045870
H        3.6011895186   -2.3695060069    0.1293566913
15   

H        1.8759941671   -1.2160238114   -1.2250215895
C        1.8528324233   -1.1344744960   -0.1417757133
C        2.7940655674   -1.8190167103    0.6345526001
C        2.7635605273   -1.7112254378    2.0308891714
C        1.8088804705   -0.9196584023    2.6566764989
C        0.8545995893   -0.2450486283    1.8781747194
C        0.8795039507   -0.3474882972    0.4821827646
H        0.1425632799    0.1822968241   -0.1146954892
H        0.0943202688    0.3599499815    2.3653999897
C        1.7699864762   -0.8345619914    4.1451889787
O        2.5399579867   -0.2183024690    4.8314923067
O        0.7111688443   -1.4888465539    4.6709639930
H        0.7857297460   -1.3482312389    5.6257612628
H        3.4961621843   -2.2446379168    2.6313886640
H        3.5494041113   -2.4346845038    0.1544805240
15   

H        1.9106467864   -1.2132792653   -1.2245241110
C        1.8684756350   -1.1259014707   -0.1423056425
C        2.7633789924   -1.8466280823    0.6560121786
C        2.7082077333   -1.7317931572    2.0510529156
C        1.7676188039   -0.9061614372    2.6526979286
C        0.8706340464   -0.1813076425    1.8528038388
C        0.9201933233   -0.2911091109    0.4579934446
H        0.2238371106    0.2723224331   -0.1565536786
H        0.1363161555    0.4686379973    2.3215827298
C        1.7235761227   -0.7864501195    4.1403386036
O        2.3327034541    0.0170083868    4.7929140153
O        0.9060190072   -1.6989713091    4.7090252493
H        0.9623961852   -1.5211176685    5.6587941629
H        3.4062956172   -2.2911160256    2.6686159031
H        3.5024429024   -2.4949346302    0.1939343626
15   

H        1.9514646443   -1.2011996964   -1.2237351990
C        1.8846900369   -1.1143216196   -0.1427152088
C        2.7255967478   -1.8757491868    0.6763720568
C        2.6387926198   -1.7617487095    2.0698606993
C        1.7112838138   -0.9050314319    2.6491887415
C        0.8813308961   -0.1260151406    1.8284330070
C        0.9626090158   -0.2353230354    0.4350648290
H        0.3135594239    0.3652815068   -0.1958566103
H        0.1751523117    0.5660344952    2.2801704082
C        1.6627618949   -0.7599451383    4.1322855712
O        2.0749866191    0.1840223909    4.7509295601
O        1.1553110209   -1.8515609870    4.7458395336
H        1.1933928897   -1.6420421526    5.6901009012
H        3.2972821343   -2.3501701502    2.7037195156
H        3.4482950516   -2.5539637247    0.2316805645
15   

H        1.9884389118   -1.1981663178   -1.2223627698
C        1.8991898419   -1.1130834966   -0.1428237890
C        2.6940577601   -1.9055251532    0.6924247457
C        2.5786775198   -1.7936236373    2.0840394834
C        1.6632464380   -0.9118247996    2.6466060274
C        0.8864810044   -0.0964131846    1.8086645559
C        0.9964014920   -0.2033858880    0.4171694397
H        0.3858388158    0.4242433503   -0.2257662227
H        0.1995394564    0.6233050527    2.2471980321
C        1.5962172013   -0.7529411735    4.1231769655
O        1.7812278409    0.2768966197    4.7161987547
O        1.3883436131   -1.9219421518    4.7700343717
H        1.3885097061   -1.6850558784    5.7086982151
H        3.2045983931   -2.4055511702    2.7287754279
H        3.4041943680   -2.6057712317    0.2618749557
15   

H        2.0149316362   -1.1944359462   -1.2224247784
C        1.9110674623   -1.1123789039   -0.1439589535
C        2.6681612810   -1.9321750863    0.6994125429
C        2.5343907127   -1.8244161650    2.0897965145
C        1.6372851376   -0.9181310888    2.6452160037
C        0.8985796652   -0.0768995324    1.7970060915
C        1.0272174707   -0.1795074964    0.4069585923
H        0.4454683141    0.4694568054   -0.2415052580
H        0.2252789204    0.6605290501    2.2278617733
C        1.5411137294   -0.7595713251    4.1160844188
O        1.4896788121    0.2955801061    4.6937603843
O        1.5887099193   -1.9344690412    4.7856506934
H        1.5334161197   -1.6844642546    5.7193960794
H        3.1353329819   -2.4599817106    2.7355714757
H        3.3639672996   -2.6510263639    0.2761816724
15   

H        2.0401966642   -1.1866166820   -1.2236655087
C        1.9256940953   -1.1083637193   -0.1459942797
C        2.6489176311   -1.9537232536    0.7011597354
C        2.5017324774   -1.8517468180    2.0907549812
C        1.6270710150   -0.9213588956    2.6441673895
C        0.9177714013   -0.0597306669    1.7893952725
C        1.0602963985   -0.1566432611    0.4005045083
H        0.5019777309    0.5104155658   -0.2502097389
H        0.2537897932    0.6897961405    2.2143288593
C        1.4956788248   -0.7734899047    4.1107672385
O        1.2113706235    0.2520767369    4.6764130352
O        1.7686296475   -1.9065716671    4.7996537990
H        1.6502139908   -1.6594049181    5.7283731114
H        3.0806724491   -2.5125272999    2.7312405474
H        3.3291005647   -2.6893796123    0.2814062344
15   

H        2.0648545724   -1.1740152563   -1.2244974937
C        1.9406966682   -1.1009767750   -0.1475280388
C        2.6308866653   -1.9717980175    0.7007474104
C        2.4713770199   -1.8775965807    2.0896518253
C        1.6211151905   -0.9241232014    2.6435138155
C        0.9377966682   -0.0436201337    1.7849997410
C        1.0931463090   -0.1330593853    0.3971575354
H        0.5565641714    0.5511417008   -0.2540590584
H        0.2815477057    0.7154938301    2.2051743347
C        1.4546560578   -0.7934231178    4.1070663019
O        0.9511230189    0.1524037904    4.6606374231
O        1.9392652985   -1.8416822615    4.8143220326
H        1.7607589403   -1.6121201692    5.7380122099
H        3.0265197783   -2.5652936783    2.7226411393
H        3.2946105794   -2.7230502759    0.2822494069
15   

H        2.1248479287   -1.0886096873   -1.2217068593
C        1.9689205248   -1.0630879106   -0.1466950751
C        3.0551203840   -1.1833803628    0.7247592583
C        2.8547364967   -1.1505359610    2.1112145931
C        1.5758198306   -0.9981885517    2.6410089043
C        0.4868535437   -0.8776673276    1.7576335793
C        0.6811191563   -0.9097913223    0.3722463154
H       -0.1692853396   -0.8155214856   -0.2971323484
H       -0.5184873223   -0.7580303638    2.1557491235
C        1.3386134267   -0.9604966406    4.0999134626
O        0.2563915372   -0.8311031359    4.6169866066
O        2.4596394782   -1.0856136671    4.8494203469
H        2.1436198253   -1.0425286725    5.7637993725
H        3.7224386998   -1.2469562452    2.7588657576
H        4.0585607748   -1.3027877593    0.3261256783
