15   

H        1.8844935937   -1.1974217028   -1.1372584420
C        1.8989338865   -1.1491141835   -0.0516463508
C        2.9606386872   -1.7132797813    0.6606503056
C        2.9827133631   -1.6488101831    2.0589107291
C        1.9377027426   -1.0273786780    2.7676381211
C        0.8787665353   -0.4514153002    2.0340829756
C        0.8609407583   -0.5150165891    0.6357975574
H        0.0425733655   -0.0641738752    0.0808477778
H        0.0688489304    0.0724046024    2.5336842859
C        1.9680883683   -0.9741836753    4.2380957310
O        2.9986688411   -1.1458666493    4.8281181973
O        0.8176975165   -0.7689074310    4.9117198680
H        0.0392111191   -0.8750488027    4.3499162352
H        3.8160684032   -2.0885463261    2.6033603601
H        3.7727417138   -2.2015689911    0.1292366221
15   

H        1.8836831902   -1.2630136505   -1.1392451926
C        1.8975220260   -1.2019037569   -0.0542862367
C        2.9496720376   -1.7733297277    0.6666860843
C        2.9716423924   -1.6911727295    2.0642110023
C        1.9362476001   -1.0429505437    2.7629976866
C        0.8870058271   -0.4610420333    2.0206383030
C        0.8685987842   -0.5432320713    0.6235233795
H        0.0576351154   -0.0865750340    0.0625004595
H        0.0863562181    0.0823137899    2.5150107613
C        1.9669687079   -0.9570535557    4.2318023284
O        2.9799005709   -1.1865343014    4.8318113293
O        0.8201727735   -0.6788308861    4.8963827097
H        0.0378198781   -0.9607343381    4.4072733019
H        3.7987925736   -2.1346305627    2.6149763070
H        3.7551810947   -2.2796967857    0.1422570601
15   

H        1.8958557309   -1.3125312730   -1.1453660721
C        1.9057466480   -1.2419945909   -0.0609618930
C        2.9499872631   -1.8156674464    0.6699226266
C        2.9671844653   -1.7205211603    2.0668772971
C        1.9351428123   -1.0554405935    2.7547951680
C        0.8935598705   -0.4730794179    2.0023509686
C        0.8794351979   -0.5687388120    0.6062296467
H        0.0740221601   -0.1107550717    0.0383711103
H        0.0955325892    0.0802549431    2.4903447677
C        1.9609905227   -0.9456727612    4.2222483695
O        2.9519553600   -1.2277853219    4.8353878664
O        0.8187513595   -0.5924102168    4.8733903761
H        0.0425735843   -1.0278828458    4.5047395272
H        3.7891210446   -2.1644770445    2.6248746129
H        3.7535373936   -2.3330237868    0.1533513407
15   

H        1.9219695195   -1.3339225184   -1.1566094719
C        1.9243944470   -1.2605805523   -0.0723821981
C        2.9607556525   -1.8366284152    0.6679764729
C        2.9681659668   -1.7376261716    2.0649103831
C        1.9345555289   -1.0648766855    2.7430508987
C        0.9004954054   -0.4818547458    1.9810002566
C        0.8957289542   -0.5817213702    0.5852596170
H        0.0953810187   -0.1228816909    0.0110259434
H        0.0999295090    0.0731997185    2.4631304167
C        1.9493342915   -0.9460609383    4.2102323805
O        2.9158055587   -1.2749738308    4.8379288803
O        0.8161862423   -0.5120029357    4.8460307092
H        0.0570692655   -1.0667189309    4.6424410287
H        3.7844002271   -2.1830053141    2.6299499211
H        3.7659028550   -2.3585344682    0.1586095861
15   

H        1.9614564467   -1.3224595986   -1.1733826588
C        1.9526667240   -1.2536385693   -0.0889311386
C        2.9803815347   -1.8339698511    0.6601914830
C        2.9726511674   -1.7413322120    2.0576748864
C        1.9329466047   -1.0694555395    2.7274532187
C        0.9072808734   -0.4834642016    1.9565352765
C        0.9172611263   -0.5772698348    0.5605016430
H        0.1222291314   -0.1166046908   -0.0195441555
H        0.0997695580    0.0659181652    2.4336872486
C        1.9291469593   -0.9584922434    4.1957048625
O        2.8728577852   -1.3252648400    4.8365564315
O        0.8133844471   -0.4410311361    4.8144917730
H        0.0849205742   -1.0676986832    4.8165559905
H        3.7819571778   -2.1906108615    2.6293912108
H        3.7902722092   -2.3546193216    0.1571944086
15   

H        2.0124529997   -1.2864819378   -1.1912258225
C        1.9887742382   -1.2287963510   -0.1063860546
C        3.0061140492   -1.8165407817    0.6511134904
C        2.9781701435   -1.7393951997    2.0493704916
C        1.9290731299   -1.0744411022    2.7116020579
C        0.9136874276   -0.4819181269    1.9320997054
C        0.9434478061   -0.5606629397    0.5354816336
H        0.1548817830   -0.0960943529   -0.0501665406
H        0.0962538652    0.0568867594    2.4044460386
C        1.8997871122   -0.9847514010    4.1816005266
O        2.8238530391   -1.3846174627    4.8327035659
O        0.8135777641   -0.3840208727    4.7813433930
H        0.1343895329   -1.0226726858    5.0130015120
H        3.7788292244   -2.1957383789    2.6274563217
H        3.8230957095   -2.3317388699    0.1541039826
15   

H        2.0645001701   -1.2497973578   -1.2060701394
C        2.0244573250   -1.2045457590   -0.1211550561
C        3.0313892491   -1.7988677781    0.6450795015
C        2.9814322572   -1.7388735853    2.0436469796
C        1.9210651801   -1.0834222174    2.6976825224
C        0.9160040225   -0.4850847617    1.9090844440
C        0.9674020127   -0.5471155596    0.5123179394
H        0.1854217742   -0.0791940067   -0.0793917436
H        0.0874382999    0.0417389824    2.3755824169
C        1.8644648008   -1.0160943889    4.1688027370
O        2.7728100942   -1.4446641856    4.8270544181
O        0.8118864082   -0.3497796604    4.7476219735
H        0.2118289264   -0.9483311713    5.2015783603
H        3.7735201909   -2.2016571843    2.6282145820
H        3.8568822721   -2.3066870793    0.1546786594
15   

H        2.1054420806   -1.2293211660   -1.2160888714
C        2.0505310705   -1.1936045206   -0.1314942164
C        3.0484425486   -1.7918602175    0.6434469542
C        2.9786895478   -1.7449555522    2.0417404021
C        1.9079265499   -1.0974866585    2.6870002465
C        0.9117364973   -0.4960099882    1.8893558461
C        0.9825074541   -0.5455254947    0.4929980083
H        0.2062783826   -0.0760511383   -0.1049745128
H        0.0733010742    0.0209114394    2.3493633527
C        1.8283881370   -1.0446122746    4.1582436765
O        2.7179718929   -1.5063816611    4.8231421996
O        0.8069430448   -0.3321011349    4.7179690519
H        0.3143682362   -0.8555188143    5.3592646619
H        3.7635674544   -2.2116302606    2.6327606355
H        3.8820031922   -2.2930907517    0.1600398378
15   

H        2.1394855909   -1.2160476919   -1.2221953033
C        2.0722182261   -1.1858888883   -0.1381439307
C        3.0670414381   -1.7782189212    0.6453540869
C        2.9811001295   -1.7386544882    2.0430446877
C        1.8969643148   -1.1044860636    2.6790749228
C        0.9035451409   -0.5098772596    1.8727670061
C        0.9906795579   -0.5516390181    0.4771413408
H        0.2160748306   -0.0875786326   -0.1271100939
H        0.0537407160   -0.0056941343    2.3261892087
C        1.7990648920   -1.0595077510    4.1496555281
O        2.6824298442   -1.5240885205    4.8235997111
O        0.7732368745   -0.3583201056    4.6950982431
H        0.4261107457   -0.8002211738    5.4800723659
H        3.7633051804   -2.2011875973    2.6407206986
H        3.9105021113   -2.2695057105    0.1690190692
15   

H        2.1597433085   -1.2033853333   -1.2262396845
C        2.0832506032   -1.1788130425   -0.1426679471
C        3.0754994893   -1.7680953314    0.6464288043
C        2.9774338708   -1.7359655114    2.0435414225
C        1.8837091458   -1.1121680347    2.6732721375
C        0.8925891168   -0.5213347278    1.8614180169
C        0.9918672410   -0.5555196011    0.4664149824
H        0.2186270527   -0.0946645693   -0.1420061198
H        0.0346036166   -0.0271817364    2.3106039564
C        1.7732870249   -1.0739648113    4.1431193128
O        2.6438235577   -1.5544947917    4.8245015410
O        0.7398915337   -0.3917709077    4.6809002893
H        0.5372040601   -0.7272520831    5.5655056809
H        3.7573394338   -2.1965328823    2.6456596185
H        3.9261302522   -2.2515464323    0.1748756506
15   

H        2.1789410194   -1.1891647745   -1.2286858099
C        2.0951942004   -1.1693611542   -0.1455580683
C        3.0879515288   -1.7519826312    0.6479099920
C        2.9803051192   -1.7262466691    2.0444749168
C        1.8762482822   -1.1158358550    2.6690326289
C        0.8843671698   -0.5322719370    1.8529575548
C        0.9934300821   -0.5596120926    0.4585595181
H        0.2193002602   -0.1046375723   -0.1531420760
H        0.0177613082   -0.0501263027    2.2987512406
C        1.7556122556   -1.0841983111    4.1380086188
O        2.6168413565   -1.5725990153    4.8267423208
O        0.6983528723   -0.4453050078    4.6712337923
H        0.6316876847   -0.6531752277    5.6154516743
H        3.7600850426   -2.1822090980    2.6502157058
H        3.9460931311   -2.2257208512    0.1801387473
15   

H        2.1947094102   -1.1718837537   -1.2287385022
C        2.1059432634   -1.1574056036   -0.1459279930
C        3.1015682430   -1.7322142700    0.6496835215
C        2.9872629711   -1.7136298335    2.0458506903
C        1.8733528901   -1.1187092473    2.6677265060
C        0.8783353610   -0.5435164591    1.8495569477
C        0.9943547200   -0.5631265763    0.4556078921
H        0.2175714011   -0.1149022445   -0.1577147100
H        0.0034072123   -0.0748167508    2.2934742697
C        1.7453914501   -1.0948628721    4.1361247707
O        2.6008503096   -1.5892390423    4.8282279659
O        0.6573532767   -0.5109993448    4.6661296362
H        0.6999540803   -0.5653297355    5.6333404788
H        3.7687561753   -2.1642677512    2.6533532684
H        3.9667851441   -2.1948494394    0.1838447436
15   

H        2.2009571649   -1.1492634081   -1.2274150938
C        2.1103662158   -1.1418626481   -0.1446824725
C        3.1111864512   -1.7098719193    0.6492512423
C        2.9943879486   -1.7007212992    2.0452877806
C        1.8725085098   -1.1226090887    2.6688165039
C        0.8719682203   -0.5547378802    1.8522413018
C        0.9908184030   -0.5643417386    0.4584082700
H        0.2096538225   -0.1221161140   -0.1536995898
H       -0.0099816909   -0.1003990250    2.2971488495
C        1.7418442730   -1.1091455964    4.1372136933
O        2.5956126918   -1.6110677238    4.8255151724
O        0.6233657383   -0.5811850372    4.6669061589
H        0.7381070498   -0.4603452269    5.6215966941
H        3.7795620911   -2.1469080101    2.6513400494
H        3.9821056981   -2.1604541122    0.1822178329
15   

H        2.2026737876   -1.1255835231   -1.2237604606
C        2.1119115198   -1.1268709120   -0.1410124749
C        3.1182201304   -1.6906725119    0.6488962987
C        3.0011159086   -1.6930450040    2.0449098518
C        1.8732832352   -1.1310602028    2.6726712718
C        0.8668786838   -0.5679272305    1.8599343974
C        0.9863095283   -0.5655907724    0.4660947126
H        0.2005519355   -0.1274211908   -0.1430492902
H       -0.0207210133   -0.1274430205    2.3074103835
C        1.7424952170   -1.1297652323    4.1413428617
O        2.5948125588   -1.6433128635    4.8216728059
O        0.5999815756   -0.6453155250    4.6728259354
H        0.7516274357   -0.3386777537    5.5778857632
H        3.7903560989   -2.1366950278    2.6475672028
H        3.9934515105   -2.1295407245    0.1787635869
15   

H        2.2024670846   -1.1019237859   -1.2185598135
C        2.1118879269   -1.1140076072   -0.1358542993
C        3.1222864036   -1.6781083855    0.6485451658
C        3.0053456478   -1.6947172474    2.0444460609
C        1.8736990855   -1.1466474904    2.6777311030
C        0.8627379327   -0.5838320689    1.8704082472
C        0.9821156203   -0.5671666273    0.4766440519
H        0.1928160544   -0.1297392556   -0.1284574466
H       -0.0290849949   -0.1557949105    2.3214027488
C        1.7438414781   -1.1595802722    4.1464666813
O        2.5896860048   -1.6921495693    4.8182448066
O        0.5891282398   -0.6919400859    4.6844710685
H        0.7563898927   -0.2017431636    5.4991409894
H        3.7975854990   -2.1390622538    2.6427033281
H        4.0004403081   -2.1065241859    0.1742148113
15   

H        2.1953548087   -1.0663761290   -1.2108984638
C        2.1066579258   -1.0918870285   -0.1282542350
C        3.1239528898   -1.6550132590    0.6478068599
C        3.0094316800   -1.6892386482    2.0435158563
C        1.8734217492   -1.1600140273    2.6850081443
C        0.8549339072   -0.5989483051    1.8860756181
C        0.9721524280   -0.5642904535    0.4923991124
H        0.1772337869   -0.1286877566   -0.1066530745
H       -0.0417731936   -0.1876304380    2.3427184692
C        1.7466703787   -1.1927006338    4.1535260743
O        2.5937320746   -1.7315294789    4.8159687824
O        0.5843146081   -0.7355471359    4.7051185344
H        0.7467312763   -0.0720023406    5.3842247046
H        3.8067851253   -2.1333032186    2.6352570713
H        4.0054252970   -2.0694152213    0.1671663960
15   

H        2.1905571953   -1.0213632571   -1.1987911474
C        2.1017252190   -1.0645284335   -0.1166924803
C        3.1207486563   -1.6369343650    0.6502421545
C        3.0057186004   -1.6948671276    2.0450532525
C        1.8682654262   -1.1791164900    2.6946367091
C        0.8474479127   -0.6093370327    1.9051270411
C        0.9649198469   -0.5516269231    0.5121747565
H        0.1680719973   -0.1106519414   -0.0803947414
H       -0.0525428518   -0.2119551861    2.3675003592
C        1.7415377547   -1.2388741136    4.1617086621
O        2.5707483659   -1.8108536126    4.8153960276
O        0.6010843426   -0.7318112742    4.7354542568
H        0.7746778590    0.0717176422    5.2340679807
H        3.8038083836   -2.1467712540    2.6299691224
H        4.0036785373   -2.0406625610    0.1631584573
15   

H        2.1933896090   -0.9585618231   -1.1807839770
C        2.1027807727   -1.0221735762   -0.0998079337
C        3.1220303037   -1.6064576542    0.6578013822
C        3.0042558482   -1.6921118761    2.0508725811
C        1.8645652728   -1.1913397920    2.7078747574
C        0.8429116373   -0.6101754567    1.9280112306
C        0.9629626516   -0.5252867210    0.5366054094
H        0.1652735581   -0.0772513973   -0.0495691037
H       -0.0614227105   -0.2288605323    2.3953417101
C        1.7335388424   -1.2860344471    4.1719997394
O        2.5470548902   -1.8862473052    4.8167177345
O        0.6300298214   -0.7166576198    4.7707461311
H        0.8013009899    0.1859379278    5.0515046476
H        3.8016472599   -2.1543774022    2.6287694744
H        4.0068321203   -1.9987457610    0.1647067182
15   

H        2.1961164968   -0.8971869387   -1.1598389905
C        2.1040511046   -0.9792870871   -0.0801945061
C        3.1228019572   -1.5758637537    0.6684107127
C        3.0027405017   -1.6868046845    2.0594098797
C        1.8620019124   -1.1980329383    2.7233560739
C        0.8401465134   -0.6051361367    1.9526579613
C        0.9623569986   -0.4955459826    0.5631027923
H        0.1643618625   -0.0402510010   -0.0171140797
H       -0.0679680634   -0.2380776761    2.4240022718
C        1.7266404034   -1.3255009760    4.1840133022
O        2.5229630600   -1.9593881536    4.8163580767
O        0.6772146513   -0.6878127990    4.8066287795
H        0.8182109921    0.2612737249    4.8588856084
H        3.7989505900   -2.1598172685    2.6303701887
H        4.0085927301   -1.9589588458    0.1697949441
15   

H        2.1842894782   -0.8585427930   -1.1414667508
C        2.0943939170   -0.9525132119   -0.0625682076
C        3.1143820093   -1.5582317699    0.6768476259
C        2.9970366926   -1.6853238944    2.0665808672
C        1.8585800096   -1.2025894303    2.7386679112
C        0.8345076154   -0.6014691650    1.9771908601
C        0.9539634950   -0.4762079271    0.5886204248
H        0.1545124258   -0.0157449371    0.0144368286
H       -0.0748351058   -0.2435517504    2.4530388268
C        1.7265273604   -1.3498802070    4.1973750642
O        2.5033872645   -2.0224477502    4.8141403649
O        0.7378355067   -0.6540096401    4.8415042669
H        0.8071218129    0.2927487769    4.6857321843
H        3.7938345458   -2.1659267624    2.6304999028
H        3.9988804645   -1.9363283319    0.1720624818
15   

H        2.1519689454   -0.8483821411   -1.1305800672
C        2.0684197458   -0.9471856707   -0.0515698357
C        3.0908471786   -1.5603895700    0.6780563055
C        2.9819769541   -1.6937135481    2.0677335826
C        1.8505844450   -1.2086857708    2.7499155132
C        0.8228110245   -0.6012986223    1.9982676377
C        0.9337319914   -0.4703395305    0.6093647456
H        0.1321390395   -0.0054334157    0.0417260972
H       -0.0838751872   -0.2448862220    2.4799881893
C        1.7320711998   -1.3605416134    4.2090352845
O        2.4827789562   -2.0780719343    4.8083070248
O        0.8064597221   -0.6146808271    4.8726823357
H        0.7703691066    0.2911116053    4.5467541279
H        3.7807934855   -2.1795692021    2.6243968563
H        3.9708360722   -1.9392165223    0.1658981497
15   

H        2.1034489188   -0.8647340499   -1.1265586920
C        2.0299598636   -0.9618872557   -0.0466408793
C        3.0549742682   -1.5824903102    0.6727656063
C        2.9596155471   -1.7129672016    2.0635175043
C        1.8403928582   -1.2166654750    2.7574644698
C        0.8086447848   -0.6030539278    2.0161143455
C        0.9059215987   -0.4755917095    0.6256774541
H        0.1023049971   -0.0056201941    0.0650781598
H       -0.0911766740   -0.2394266958    2.5047615231
C        1.7446223341   -1.3600076061    4.2189671693
O        2.4629092781   -2.1234719283    4.8019672369
O        0.8796570551   -0.5710231832    4.8998162704
H        0.7137027303    0.2641688277    4.4462888539
H        3.7609869948   -2.2031432308    2.6127951764
H        3.9269299419   -1.9684367962    0.1521728140
15   

H        2.0483860123   -0.9004150285   -1.1277958473
C        1.9860215958   -0.9912971258   -0.0466173770
C        3.0102293284   -1.6234162915    0.6635166850
C        2.9298569279   -1.7446068383    2.0558632870
C        1.8278825913   -1.2264082570    2.7613003614
C        0.7957514539   -0.6018685246    2.0292906314
C        0.8776574905   -0.4847304945    0.6367623462
H        0.0748427572   -0.0057034918    0.0827088813
H       -0.0926417175   -0.2202681924    2.5243603783
C        1.7595309640   -1.3521489483    4.2260582469
O        2.4386431647   -2.1607922615    4.7957947108
O        0.9540667574   -0.5217591351    4.9195930511
H        0.6435555903    0.2202057428    4.3848023805
H        3.7315622875   -2.2416997033    2.5984875490
H        3.8706098388   -2.0242139652    0.1348913219
15   

H        1.9917976806   -0.9392949412   -1.1330649162
C        1.9428090171   -1.0198698991   -0.0503764129
C        2.9616872335   -1.6704029614    0.6501079358
C        2.8991547902   -1.7770408219    2.0443380321
C        1.8214304083   -1.2257578374    2.7626953388
C        0.7944333665   -0.5812705961    2.0399380486
C        0.8580598214   -0.4798275535    0.6450006745
H        0.0601727074    0.0153259066    0.0980749838
H       -0.0754954281   -0.1674588088    2.5406468815
C        1.7842871622   -1.3319355372    4.2312349782
O        2.4463606446   -2.1623385220    4.7902618717
O        1.0071228433   -0.4880721497    4.9361936299
H        0.5258446077    0.1308077647    4.3713537733
H        3.6984624844   -2.2865951918    2.5789397756
H        3.8049752919   -2.0954975819    0.1129563289
