6    

H       -0.5838590851   -0.0616272352   -0.7588237319
C        0.0265059673    0.3286329349    0.0624006965
H       -0.6530536736    0.6940171681    0.8396571185
O        0.8557889299   -0.6603361629    0.5687624673
H        0.3697193641   -1.4836917489    0.6802303178
Br       1.1586915796    1.7754620708   -0.5756472037
6    

H       -0.5822548229   -0.0853563376   -0.7306540598
C        0.0176068155    0.3321313926    0.0848333523
H       -0.6664193860    0.7411570415    0.8360234822
O        0.8212929711   -0.6421280780    0.6507245824
H        0.4136821729   -1.5103742030    0.5776212171
Br       1.1692769711    1.7554480840   -0.6005019863
6    

H       -0.5902403676   -0.1048040674   -0.7071048250
C        0.0036063445    0.3310030749    0.1031336618
H       -0.6798052763    0.7866602691    0.8275852434
O        0.7673522067   -0.6344618439    0.7259357844
H        0.4809464643   -1.5203883071    0.4858342521
Br       1.1874073467    1.7302178679   -0.6185521633
6    

H       -0.6085379835   -0.1184883702   -0.6874359499
C       -0.0146778335    0.3262494777    0.1179106011
H       -0.6935486939    0.8253641778    0.8175799933
O        0.6999665310   -0.6364018102    0.7873007636
H        0.5667291852   -1.5107505104    0.4089978283
Br       1.2109381148    1.6979772278   -0.6321342789
6    

H       -0.2610849654   -0.1099582393   -0.9364904916
C       -0.0530068624    0.2861478884    0.0629533344
H       -0.9943503690    0.6312686915    0.5037391261
O        0.4857228643   -0.6808204081    0.8633352535
H        0.8221988197   -1.4253920060    0.3532513752
Br       1.1653800933    1.8663572854   -0.0828251648
6    

H       -0.2895857542   -0.1082418204   -0.9393584642
C       -0.0763870936    0.2780318145    0.0628924880
H       -1.0095357234    0.6555312810    0.4944749660
O        0.4121303314   -0.7123610297    0.8589668526
H        0.9225117354   -1.3576735053    0.3551127491
Br       1.2029446674    1.8166542677   -0.0823387185
6    

H       -0.3231192106   -0.0950290106   -0.9462409818
C       -0.0986843349    0.2718448672    0.0608848946
H       -1.0205388824    0.6750099997    0.4935308756
O        0.3506349801   -0.7494746197    0.8376581246
H        1.0134388172   -1.2794658174    0.3760676553
Br       1.2388736074    1.7587335944   -0.0823001346
6    

H       -0.3623260491   -0.0693490814   -0.9565095547
C       -0.1171924212    0.2683668356    0.0560238990
H       -1.0241705192    0.6905000752    0.5018215160
O        0.3026500753   -0.7917456530    0.8006290524
H        1.0910032222   -1.1983819384    0.4167365848
Br       1.2697432603    1.6981847423   -0.0830490317
6    

H       -0.4095732644   -0.0351552968   -0.9680502789
C       -0.1308747877    0.2646684233    0.0477614473
H       -1.0193736850    0.6968481308    0.5203362698
O        0.2692542623   -0.8380401857    0.7477081564
H        1.1518012016   -1.1233807069    0.4773341183
Br       1.2926174216    1.6446482092   -0.0870725631
6    

H       -0.4629509265    0.0076164960   -0.9791184332
C       -0.1379202271    0.2621609083    0.0353002704
H       -1.0039696736    0.6949996621    0.5472921557
O        0.2513387554   -0.8849762839    0.6811041859
H        1.1919756744   -1.0600821392    0.5556259292
Br       1.3067299337    1.6027725353   -0.0941469222
6    

H       -0.5179722906    0.0531210907   -0.9878829230
C       -0.1394461515    0.2585205691    0.0191075890
H       -0.9791218023    0.6819682955    0.5804922038
O        0.2490553683   -0.9282219899    0.6033881813
H        1.2083814522   -1.0099822520    0.6461968028
Br       1.3139865548    1.5763468926   -0.1037999700
6    

H       -0.5683610785    0.0955163930   -0.9931133927
C       -0.1369423178    0.2528388716    0.0011881002
H       -0.9457178976    0.6582400959    0.6184724184
O        0.2623554178   -0.9632881261    0.5193244349
H        1.1995706802   -0.9710181467    0.7414743083
Br       1.3173629474    1.5651724938   -0.1165163957
6    

H       -0.6107584386    0.1315307501   -0.9937180378
C       -0.1313884678    0.2461613851   -0.0156689050
H       -0.9039408199    0.6281493947    0.6601631019
O        0.2892211148   -0.9870997005    0.4346908973
H        1.1649078092   -0.9434950191    0.8348089703
Br       1.3201677998    1.5664709752   -0.1340668405
6    

H       -0.6448254428    0.1580095277   -0.9880318746
C       -0.1230715823    0.2396502919   -0.0285349156
H       -0.8567875948    0.5946267050    0.7029947441
O        0.3282462997   -0.9985999640    0.3556470561
H        1.1071360904   -0.9316587934    0.9213806572
Br       1.3210540778    1.5806252183   -0.1596583155
6    

H       -0.6694112471    0.1733970669   -0.9762799536
C       -0.1113872168    0.2352533965   -0.0358973131
H       -0.8097756104    0.5616827451    0.7420089036
O        0.3774350281   -0.9984456838    0.2882830578
H        1.0308205092   -0.9410299855    0.9976488602
Br       1.3169336847    1.6075746076   -0.1952333407
6    

H       -0.6822673814    0.1782629875   -0.9609545268
C       -0.0951204216    0.2348364147   -0.0381330478
H       -0.7667959871    0.5339658299    0.7734952587
O        0.4350534840   -0.9885876171    0.2371669014
H        0.9413891649   -0.9733144171    1.0604121375
Br       1.3051297936    1.6446851914   -0.2392665551
6    

H       -0.6841671242    0.1718116332   -0.9450033113
C       -0.0759810870    0.2376205688   -0.0365323941
H       -0.7309704021    0.5133088113    0.7966872536
O        0.4992795391   -0.9702849559    0.2051087478
H        0.8434556474   -1.0239495674    1.1061796402
Br       1.2858670524    1.6876943998   -0.2876829556
6    

H       -0.6765067417    0.1573458255   -0.9297234420
C       -0.0541035143    0.2444418254   -0.0327484379
H       -0.6996462538    0.5034268387    0.8130466334
O        0.5686652282   -0.9449394665    0.1926044476
H        0.7418319019   -1.0861820341    1.1311410242
Br       1.2612784149    1.7286160395   -0.3363304650
6    

H       -0.6624052319    0.1347339393   -0.9157610203
C       -0.0317514077    0.2540993244   -0.0283176442
H       -0.6728930668    0.5043388623    0.8233877486
O        0.6415120808   -0.9122691955    0.2000685532
H        0.6407428297   -1.1527422561    1.1327858300
Br       1.2338911660    1.7630614695   -0.3804350573
6    

H       -0.6459692927    0.1061164081   -0.9008584934
C       -0.0106182736    0.2672342124   -0.0234255766
H       -0.6501567158    0.5179120135    0.8293322485
O        0.7145065452   -0.8715399421    0.2273489730
H        0.5460383080   -1.2178260418    1.1088566386
Br       1.2066279175    1.7868277891   -0.4178072392
6    

H       -0.6320123866    0.0715403035   -0.8800745486
C        0.0070418498    0.2813309860   -0.0157236117
H       -0.6331205057    0.5414643526    0.8337414837
O        0.7794815098   -0.8248474683    0.2724918507
H        0.4640668712   -1.2806980957    1.0581460728
Br       1.1837256052    1.7998394336   -0.4510328176
6    

H       -0.6197292872    0.0344253401   -0.8525119359
C        0.0202152108    0.2955345926   -0.0029394281
H       -0.6252358444    0.5724358858    0.8372202681
O        0.8292244082   -0.7759765323    0.3327646787
H        0.4010101576   -1.3405730816    0.9833066522
Br       1.1676640157    1.8038219900   -0.4828482425
6    

H       -0.6066107489   -0.0015478358   -0.8212550119
C        0.0279370110    0.3091127819    0.0155685208
H       -0.6283189366    0.6086981755    0.8394828269
O        0.8598532687   -0.7292997456    0.4051711012
H        0.3628959842   -1.3956224897    0.8906087906
Br       1.1580037709    1.8004475411   -0.5146712852
6    

H       -0.5932840058   -0.0338542880   -0.7895081629
C        0.0300331009    0.3205165246    0.0382941858
H       -0.6392643542    0.6492933343    0.8403580055
O        0.8687437554   -0.6898228926    0.4854328259
H        0.3520975846   -1.4443088187    0.7870949006
Br       1.1552147913    1.7905936092   -0.5461351047
