15   

H        2.1271729969   -1.0610755991   -1.2209014122
C        1.9701895725   -1.0475291183   -0.1458266673
C        3.0517428567   -1.2090818306    0.7250384946
C        2.8496089340   -1.1921315220    2.1114825651
C        1.5750277870   -1.0076546219    2.6408534493
C        0.4892325416   -0.8565614819    1.7591072323
C        0.6850929322   -0.8725806598    0.3736033677
H       -0.1620506428   -0.7512108599   -0.2955391504
H       -0.5139330250   -0.7261667975    2.1592566050
C        1.3363210858   -1.0078906867    4.1002309048
O        0.2532050539   -1.1124340541    4.6203452440
O        2.4619734603   -0.8943814376    4.8444932879
H        2.1478007786   -0.9106860058    5.7603516734
H        3.7101016922   -1.3264421525    2.7620970075
H        4.0522054052   -1.3500597487    0.3259772418
15   

H        2.1246495961   -1.0335580622   -1.2187924248
C        1.9683908967   -1.0309821148   -0.1435314204
C        3.0460755374   -1.2339523100    0.7240822851
C        2.8439259868   -1.2315912278    2.1105048385
C        1.5758537613   -1.0141836917    2.6412106212
C        0.4920515285   -0.8312663904    1.7648207131
C        0.6874149758   -0.8324167340    0.3789799079
H       -0.1568487195   -0.6835756898   -0.2882392528
H       -0.5072636095   -0.6894662421    2.1703975819
C        1.3412581693   -1.0533494998    4.1018494937
O        0.3073782575   -1.3862224383    4.6242210238
O        2.4261758918   -0.7149027818    4.8376133077
H        2.1290459439   -0.7916194098    5.7560149859
H        3.6941599615   -1.4007061100    2.7666499856
H        4.0421698177   -1.3970807619    0.3225634333
15   

H        2.1177448906   -1.0080961509   -1.2164917930
C        1.9639255057   -1.0165762018   -0.1409094650
C        3.0381741996   -1.2615943405    0.7207678643
C        2.8382729610   -1.2736887314    2.1073345668
C        1.5785464729   -1.0245832249    2.6418253198
C        0.4961199485   -0.8062762146    1.7737746543
C        0.6889192162   -0.7926000725    0.3874307199
H       -0.1526107384   -0.6144353360   -0.2760274794
H       -0.4980997802   -0.6504512201    2.1861060488
C        1.3535898644   -1.0994205047    4.1052576715
O        0.4186272776   -1.6454773707    4.6319184925
O        2.3541362654   -0.5472898049    4.8298454190
H        2.0881490239   -0.6791252233    5.7514258459
H        3.6787888756   -1.4750765845    2.7669377698
H        4.0284918116   -1.4467005155    0.3145360675
15   

H        2.1067605396   -0.9837239000   -1.2155332422
C        1.9581514136   -1.0062205571   -0.1394207375
C        3.0296494033   -1.2973250526    0.7117954538
C        2.8360243652   -1.3272288295    2.0988935466
C        1.5870257975   -1.0499551465    2.6422064415
C        0.5058422078   -0.7862417910    1.7866925309
C        0.6923847184   -0.7543510151    0.3996203563
H       -0.1466320285   -0.5407499881   -0.2565023519
H       -0.4808916622   -0.6098394475    2.2079206728
C        1.3771931461   -1.1498765936    4.1105319093
O        0.5893773061   -1.8830917488    4.6473898020
O        2.2370599071   -0.3838117339    4.8190324174
H        2.0116252742   -0.5557883538    5.7446717883
H        3.6699136810   -1.5622553793    2.7556338348
H        4.0120832432   -1.5040851729    0.2969633222
15   

H        2.0896331447   -0.9507903013   -1.2157595504
C        1.9514577826   -0.9933122572   -0.1388610757
C        3.0217381191   -1.3390446148    0.6934664456
C        2.8415350846   -1.3943120820    2.0815637010
C        1.6068433651   -1.0943036303    2.6431602318
C        0.5275842668   -0.7671067504    1.8080133817
C        0.7008689882   -0.7096705636    0.4199562054
H       -0.1361614504   -0.4497452410   -0.2218162784
H       -0.4463801639   -0.5603676448    2.2442929019
C        1.4183744819   -1.2028470139    4.1181755102
O        0.8236908824   -2.0837035743    4.6786892923
O        2.0538798992   -0.2230816859    4.7977142151
H        1.8716605395   -0.4128224415    5.7292572912
H        3.6732241407   -1.6688435120    2.7254200914
H        3.9926313547   -1.5674538647    0.2631016465
15   

H        2.0780868913   -0.9098247555   -1.2148586107
C        1.9525835406   -0.9734706279   -0.1374505102
C        3.0178275816   -1.3854871745    0.6707002840
C        2.8537545594   -1.4680159714    2.0594546257
C        1.6377601395   -1.1415041076    2.6452017903
C        0.5679591603   -0.7298468613    1.8353317985
C        0.7247767162   -0.6452632026    0.4467129188
H       -0.1065118297   -0.3263709237   -0.1756232585
H       -0.3858865219   -0.4777536345    2.2914383282
C        1.4730089987   -1.2405544486    4.1258747246
O        1.1012532053   -2.2147593928    4.7218263265
O        1.7928661168   -0.0917309828    4.7602209407
H        1.6470278363   -0.2803551449    5.6983165732
H        3.6824125321   -1.7907054780    2.6845548195
H        3.9726394230   -1.6427917131    0.2210765832
15   

H        2.0619299981   -0.8790495070   -1.2142884212
C        1.9514688740   -0.9557138287   -0.1360818981
C        3.0114372330   -1.4250709916    0.6471003789
C        2.8664447572   -1.5247666222    2.0368281587
C        1.6710777304   -1.1693990617    2.6487218174
C        0.6126023879   -0.6836219920    1.8642054626
C        0.7500734176   -0.5820558702    0.4747114229
H       -0.0749029575   -0.2118188120   -0.1272486904
H       -0.3175967608   -0.3865709742    2.3416221132
C        1.5383119488   -1.2544280516    4.1318157707
O        1.4097146879   -2.2666544531    4.7662480239
O        1.5123008769   -0.0369476135    4.7172106930
H        1.4075065135   -0.2213765755    5.6616544005
H        3.6920747488   -1.8895828745    2.6426977155
H        3.9478265352   -1.7126185302    0.1774794316
15   

H        2.0487282956   -0.8846209744   -1.2172488842
C        1.9501733141   -0.9588595203   -0.1377204762
C        3.0022850177   -1.4686811467    0.6303329553
C        2.8726607065   -1.5653425127    2.0217252364
C        1.6979208442   -1.1710126480    2.6518016138
C        0.6503152404   -0.6382453767    1.8810806532
C        0.7728985594   -0.5398082286    0.4900044867
H       -0.0447275389   -0.1354384667   -0.0998981836
H       -0.2602933177   -0.3018334696    2.3702924007
C        1.5964290045   -1.2427548451    4.1339544843
O        1.7085418184   -2.2410864406    4.7950790157
O        1.2701426731   -0.0543671877    4.6902017833
H        1.2142077005   -0.2364199367    5.6393665341
H        3.6927049427   -1.9612305583    2.6159929688
H        3.9210358743   -1.7898441549    0.1478198348
15   

H        2.0333480427   -0.9131401900   -1.2227800346
C        1.9445722134   -0.9746813186   -0.1416054048
C        2.9880040723   -1.5117233688    0.6193108794
C        2.8713850995   -1.5919213787    2.0127836059
C        1.7174240984   -1.1528007744    2.6543384806
C        0.6776824972   -0.5944718469    1.8881686863
C        0.7885129602   -0.5127328483    0.4950170190
H       -0.0224196427   -0.0880494833   -0.0898372241
H       -0.2191297504   -0.2253042307    2.3794632713
C        1.6441545613   -1.2154775829    4.1344176728
O        1.9849076384   -2.1537229375    4.8074671940
O        1.0718748911   -0.1194488468    4.6837195314
H        1.0708117976   -0.2971131311    5.6354745170
H        3.6854929750   -2.0098006447    2.6006347363
H        3.8902878685   -1.8671374752    0.1297716330
15   

H        2.0177215115   -0.9530387027   -1.2296521085
C        1.9381291497   -0.9963333826   -0.1468787883
C        2.9725888586   -1.5530641369    0.6115626653
C        2.8683765349   -1.6096800419    2.0070876944
C        1.7361895746   -1.1234446828    2.6558132027
C        0.7023971070   -0.5507017978    1.8890972553
C        0.8022461174   -0.4928422202    0.4939286819
H       -0.0027079826   -0.0551391681   -0.0896011512
H       -0.1835729196   -0.1515383890    2.3766152309
C        1.6838699788   -1.1792633719    4.1339537702
O        2.2303402313   -2.0124054923    4.8120087637
O        0.9059726669   -0.2185083145    4.6851733992
H        0.9568711122   -0.3830073925    5.6380260849
H        3.6777040744   -2.0441231929    2.5899185238
H        3.8587785116   -1.9425880603    0.1185777751
15   

H        1.9967624290   -0.9985488425   -1.2355066788
C        1.9271956033   -1.0218994435   -0.1514282964
C        2.9532646336   -1.5945606739    0.6058808659
C        2.8626774277   -1.6251127168    2.0031200482
C        1.7537231703   -1.0925346466    2.6572694761
C        0.7245635870   -0.5100195766    1.8889142472
C        0.8119453061   -0.4783032505    0.4920856318
H        0.0122841186   -0.0302802879   -0.0909041521
H       -0.1498626315   -0.0810753621    2.3718313475
C        1.7167859944   -1.1395533839    4.1348693982
O        2.4373567390   -1.8226228019    4.8195694351
O        0.7649312050   -0.3497072003    4.6851519025
H        0.8588005844   -0.4876086892    5.6390228135
H        3.6683853147   -2.0734524023    2.5805920420
H        3.8229865031   -2.0170558750    0.1107123202
15   

H        1.9716838435   -1.0475018031   -1.2388639945
C        1.9132133857   -1.0499014523   -0.1538816180
C        2.9316319904   -1.6363231480    0.6029275433
C        2.8559176633   -1.6392787990    2.0013721641
C        1.7711758701   -1.0614683951    2.6583320889
C        0.7462428490   -0.4710201471    1.8892632669
C        0.8193502815   -0.4666598753    0.4912754736
H        0.0247347440   -0.0093774046   -0.0914311692
H       -0.1134979802   -0.0118416172    2.3706635457
C        1.7452535820   -1.0947464362    4.1362315885
O        2.6010901807   -1.5895811598    4.8276185173
O        0.6531705625   -0.5093032063    4.6816360802
H        0.7779856748   -0.6089903568    5.6367401889
H        3.6566943085   -2.0997824023    2.5761518010
H        3.7841534005   -2.0910886195    0.1064277930
15   

H        1.9428083052   -1.0963257996   -1.2386207507
C        1.8962408659   -1.0779958260   -0.1532147339
C        2.9074102552   -1.6776607002    0.6032335784
C        2.8472829559   -1.6530115717    2.0022310415
C        1.7877701653   -1.0308317694    2.6592356365
C        0.7669194382   -0.4332575512    1.8913605325
C        0.8243409536   -0.4558363170    0.4928024600
H        0.0346412002    0.0102407404   -0.0896116187
H       -0.0752432351    0.0541578510    2.3761404042
C        1.7680236527   -1.0466950957    4.1378279895
O        2.7114770644   -1.3258307833    4.8353945750
O        0.5776514695   -0.6891163171    4.6743416150
H        0.7186257343   -0.7416483456    5.6309317266
H        3.6406252497   -2.1237622540    2.5789886767
H        3.7419411551   -2.1639322958    0.1060330849
15   

H        1.9153642667   -1.1385415982   -1.2355605162
C        1.8803415494   -1.1010624201   -0.1502144169
C        2.8824905780   -1.7163503113    0.6063618015
C        2.8371716160   -1.6662333475    2.0052864486
C        1.8045831785   -0.9994947031    2.6597614547
C        0.7894773773   -0.3928856647    1.8941242489
C        0.8314072921   -0.4399931552    0.4956123007
H        0.0476220074    0.0360745351   -0.0866954501
H       -0.0337940574    0.1199070413    2.3852615800
C        1.7840533419   -0.9976994261    4.1397371598
O        2.7616547916   -1.0494982360    4.8426783265
O        0.5419984161   -0.8781429242    4.6641638940
H        0.6825570408   -0.8801503356    5.6221921171
H        3.6205535370   -2.1476981737    2.5866194649
H        3.6978778299   -2.2341901638    0.1092897672
15   

H        1.8897885065   -1.1733117307   -1.2310667746
C        1.8653334896   -1.1182844092   -0.1461792308
C        2.8555595738   -1.7517523906    0.6116652877
C        2.8236111673   -1.6785019759    2.0100256110
C        1.8194261163   -0.9679417384    2.6602269800
C        0.8133159733   -0.3486616168    1.8959988883
C        0.8408644167   -0.4178542341    0.4980397625
H        0.0649308011    0.0702587137   -0.0847937530
H        0.0095144856    0.1890701073    2.3926628245
C        1.7934632355   -0.9448832003    4.1430370010
O        2.7502839752   -0.7666230362    4.8516483970
O        0.5468180512   -1.0710146603    4.6534115635
H        0.6708104386   -1.0220399790    5.6123853109
H        3.5954065079   -2.1730652061    2.5954338636
H        3.6506068953   -2.3015120171    0.1159354997
15   

H        1.8737395805   -1.2017559285   -1.2273502570
C        1.8548442046   -1.1316263667   -0.1432234935
C        2.8264987252   -1.7872613334    0.6201856173
C        2.8015836751   -1.6941567534    2.0176222523
C        1.8244835839   -0.9416422295    2.6591073548
C        0.8359084747   -0.3018934188    1.8917938398
C        0.8555570379   -0.3900061503    0.4947757585
H        0.0933600004    0.1148182842   -0.0919272905
H        0.0524912247    0.2650287769    2.3883476516
C        1.7910699962   -0.8900048866    4.1451899715
O        2.6770102737   -0.4859195492    4.8509845332
O        0.5974157479   -1.2735576135    4.6513677098
H        0.6959092432   -1.1757371328    5.6094469519
H        3.5577835159   -2.2057506650    2.6082045935
H        3.6011896328   -2.3695058507    0.1293566820
15   

H        1.8759942759   -1.2160236532   -1.2250216004
C        1.8528325025   -1.1344743844   -0.1417757212
C        2.7940656058   -1.8190166560    0.6345525936
C        2.7635605273   -1.7112254378    2.0308891714
C        1.8088804705   -0.9196584023    2.6566764989
C        0.8545996345   -0.2450485676    1.8781747129
C        0.8795040320   -0.3474881829    0.4821827556
H        0.1425633922    0.1822969846   -0.1146954969
H        0.0943203184    0.3599500575    2.3653999663
C        1.7699864762   -0.8345619914    4.1451889787
O        2.5399579867   -0.2183024690    4.8314923067
O        0.7111690236   -1.4888468160    4.6709640185
H        0.7857287851   -1.3482297658    5.6257611209
H        3.4961621491   -2.2446379522    2.6313886765
H        3.5494041486   -2.4346844463    0.1544805104
15   

H        1.9106465140   -1.2132796282   -1.2245241014
C        1.8684754466   -1.1259017228   -0.1423056368
C        2.7633789084   -1.8466282027    0.6560121850
C        2.7082077333   -1.7317931572    2.0510529156
C        1.7676188039   -0.9061614372    2.6526979286
C        0.8706339509   -0.1813077650    1.8528038335
C        0.9201931334   -0.2911093632    0.4579934451
H        0.2238368303    0.2723220710   -0.1565536771
H        0.1363160424    0.4686378642    2.3215827098
C        1.7235761227   -0.7864501195    4.1403386036
O        2.3327034541    0.0170083868    4.7929140153
O        0.9060190066   -1.6989713035    4.7090252562
H        0.9623962404   -1.5211176944    5.6587941728
H        3.4062956758   -2.2911159470    2.6686159080
H        3.5024428266   -2.4949347489    0.1939343802
15   

H        1.9514609321   -1.2012023649   -1.2237354363
C        1.8846855569   -1.1143254168   -0.1427154003
C        2.7255929025   -1.8757525933    0.6763715806
C        2.6387882206   -1.7617532588    2.0698602660
C        1.7112776663   -0.9050374246    2.6491887030
C        0.8813241712   -0.1260216054    1.8284331009
C        0.9626031387   -0.2353284432    0.4350648865
H        0.3135533503    0.3652760084   -0.1958564336
H        0.1751449678    0.5660273659    2.2801705736
C        1.6627576143   -0.7599503163    4.1322825295
O        2.0749834754    0.1840236460    4.7509227253
O        1.1553113185   -1.8515653034    4.7458418769
H        1.1933975865   -1.6420440986    5.6901025665
H        3.2972787015   -2.3501739333    2.7037188017
H        3.4482923923   -2.5539656788    0.2316798017
15   

H        1.9884322818   -1.1981718744   -1.2223635725
C        1.8991830527   -1.1130900348   -0.1428245277
C        2.6940528983   -1.9055304089    0.6924233274
C        2.5786730363   -1.7936296870    2.0840381168
C        1.6632396550   -0.9118325715    2.6466059170
C        0.8864723248   -0.0964226289    1.8086645006
C        0.9963928364   -0.2033946853    0.4171693306
H        0.3858290009    0.4242337911   -0.2257659733
H        0.1995298694    0.6232946746    2.2471981103
C        1.5962129775   -0.7529458054    4.1231748595
O        1.7812220763    0.2768979128    4.7161909590
O        1.3883458590   -1.9219443529    4.7700387262
H        1.3885170071   -1.6850539420    5.7087015420
H        3.2045959785   -2.4055556273    2.7287735611
H        3.4041910902   -2.6057745203    0.2618729538
15   

H        2.0149217285   -1.1944441295   -1.2224271075
C        1.9110580422   -1.1123890276   -0.1439610887
C        2.6681555844   -1.9321833529    0.6994086771
C        2.5343863698   -1.8244260447    2.0897928548
C        1.6372779206   -0.9181442789    2.6452156359
C        0.8985684675   -0.0769154015    1.7970061464
C        1.0272052235   -0.1795216140    0.4069584281
H        0.4454534240    0.4694416526   -0.2415040887
H        0.2252660893    0.6605112983    2.2278625515
C        1.5411089085   -0.7595789055    4.1160822823
O        1.4896697931    0.2955813614    4.6937461185
O        1.5887156177   -1.9344695007    4.7856601515
H        1.5334261983   -1.6844557562    5.7194034134
H        3.1353320625   -2.4599893473    2.7355668248
H        3.3639639543   -2.6510314769    0.2761763209
15   

H        2.0401906613   -1.1866233795   -1.2236677147
C        1.9256882253   -1.1083724434   -0.1459963246
C        2.6489149458   -1.9537305867    0.7011561807
C        2.5017305012   -1.8517560583    2.0907516065
C        1.6270662862   -0.9213713044    2.6441669162
C        0.9177631856   -0.0597451739    1.7893951488
C        1.0602876710   -0.1566557379    0.4005042042
H        0.5019666412    0.5104022919   -0.2502088403
H        0.2537796332    0.6897797056    2.2143291681
C        1.4956755607   -0.7734985858    4.1107632085
O        1.2113619973    0.2520745689    4.6764041840
O        1.7686334406   -1.9065748182    4.7996560193
H        1.6502196289   -1.6594028892    5.7283742221
H        3.0806733183   -2.5125348819    2.7312363221
H        3.3291001990   -2.6893840561    0.2814013801
15   

H        2.0648548678   -1.1740144322   -1.2244986341
C        1.9406969425   -1.1009782160   -0.1475290280
C        2.6308888015   -1.9717995801    0.7007446838
C        2.4713793375   -1.8776009104    2.0896492677
C        1.6211153547   -0.9241296484    2.6435138879
C        0.9377949731   -0.0436268403    1.7850007222
C        1.0931447084   -0.1330635690    0.3971583716
H        0.5565611548    0.5511375855   -0.2540569875
H        0.2815444341    0.7154854636    2.2051759065
C        1.4546566499   -0.7934309211    4.1070616868
O        0.9511186087    0.1524007142    4.6606327138
O        1.9392676566   -1.8416878707    4.8143195454
H        1.7607607502   -1.6121244432    5.7380093288
H        3.0265236819   -2.5652979391    2.7226372917
H        3.2946141592   -2.7230497184    0.2822451711
15   

H        2.0869134584   -1.1573568305   -1.2238971924
C        1.9531978788   -1.0915837616   -0.1476030410
C        2.6109763031   -1.9883131245    0.6991181741
C        2.4389648236   -1.9040534453    2.0872114912
C        1.6135344168   -0.9298471498    2.6431869150
C        0.9544077655   -0.0303193570    1.7846256485
C        1.1225172136   -0.1098426704    0.3977283032
H        0.6071071625    0.5915443842   -0.2523109964
H        0.3061436789    0.7364525330    2.2033544688
C        1.4158270656   -0.8205743991    4.1043664813
O        0.7150869652    0.0001981621    4.6434598662
O        2.0995468228   -1.7382239581    4.8286323093
H        1.8698878415   -1.5386221090    5.7479960401
H        2.9660070402   -2.6178585283    2.7151962566
H        3.2580459156   -2.7535749986    0.2799109972
