15   

H        2.1271730984   -1.0610751496   -1.2209014083
C        1.9701896434   -1.0475287509   -0.1458266672
C        3.0517428878   -1.2090816594    0.7250384992
C        2.8496089340   -1.1921315220    2.1114825651
C        1.5750277870   -1.0076546219    2.6408534493
C        0.4892325721   -0.8565612979    1.7591072209
C        0.6850930028   -0.8725802968    0.3736033606
H       -0.1620505535   -0.7512104180   -0.2955391651
H       -0.5139330182   -0.7261666888    2.1592565550
C        1.3363210858   -1.0078906867    4.1002309048
O        0.2532050539   -1.1124340541    4.6203452440
O        2.4619738180   -0.8943854426    4.8444933784
H        2.1477988487   -0.9106650292    5.7603514225
H        3.7101017031   -1.3264424670    2.7620969333
H        4.0522054272   -1.3500596762    0.3259772580
15   

H        2.1246498246   -1.0335572553   -1.2187924132
C        1.9683910546   -1.0309814531   -0.1435314190
C        3.0460756181   -1.2339519633    0.7240823012
C        2.8439259868   -1.2315912278    2.1105048385
C        1.5758537613   -1.0141836917    2.6412106212
C        0.4920515760   -0.8312661604    1.7648206796
C        0.6874151081   -0.8324161654    0.3789798810
H       -0.1568485480   -0.6835750651   -0.2882393187
H       -0.5072636320   -0.6894662829    2.1703974565
C        1.3412581693   -1.0533494998    4.1018494937
O        0.3073782575   -1.3862224383    4.6242210238
O        2.4261774918   -0.7149078388    4.8376133602
H        2.1290270288   -0.7915558717    5.7560141174
H        3.6941598796   -1.4007068194    2.7666499480
H        4.0421698951   -1.3970805923    0.3225635109
15   

H        2.1177453879   -1.0080954359   -1.2164917890
C        1.9639258445   -1.0165755995   -0.1409094851
C        3.0381744092   -1.2615939826    0.7207679149
C        2.8382729610   -1.2736887314    2.1073345668
C        1.5785464729   -1.0245832249    2.6418253198
C        0.4961200130   -0.8062761923    1.7737745233
C        0.6889194727   -0.7925997019    0.3874306042
H       -0.1526104047   -0.6144350817   -0.2760277216
H       -0.4980998986   -0.6504517248    2.1861056337
C        1.3535898644   -1.0994205047    4.1052576715
O        0.4186272776   -1.6454773707    4.6319184925
O        2.3541387687   -0.5472938432    4.8298452312
H        2.0880903157   -0.6790148226    5.7514243233
H        3.6787885445   -1.4750773157    2.7669380710
H        4.0284920638   -1.4467003343    0.3145363038
15   

H        2.1067610429   -0.9837240876   -1.2155332910
C        1.9581517458   -1.0062206375   -0.1394208092
C        3.0296496454   -1.2973250089    0.7117955130
C        2.8360243652   -1.3272288295    2.0988935466
C        1.5870257975   -1.0499551465    2.6422064415
C        0.5058422057   -0.7862422591    1.7866922970
C        0.6923849193   -0.7543514243    0.3996201332
H       -0.1466317817   -0.5407508466   -0.2565027781
H       -0.4808919571   -0.6098406282    2.2079199741
C        1.3771931461   -1.1498765936    4.1105319093
O        0.5893773061   -1.8830917488    4.6473898020
O        2.2370630212   -0.3838147168    4.8190321121
H        2.0115221166   -0.5556675331    5.7446685552
H        3.6699132528   -1.5622555863    2.7556344494
H        4.0120835913   -1.5040852043    0.2969636745
15   

H        2.0896334116   -0.9507912988   -1.2157596692
C        1.9514579292   -0.9933129956   -0.1388612020
C        3.0217382686   -1.3390448812    0.6934664783
C        2.8415350846   -1.3943120820    2.0815637010
C        1.6068433651   -1.0943036303    2.6431602318
C        0.5275841593   -0.7671075453    1.8080131097
C        0.7008689937   -0.7096716333    0.4199559222
H       -0.1361614655   -0.4497469256   -0.2218167842
H       -0.4463805752   -0.5603690170    2.2442921477
C        1.4183744819   -1.2028470139    4.1181755102
O        0.8236908824   -2.0837035743    4.6786892923
O        2.0538830222   -0.2230835750    4.7977141489
H        1.8715624509   -0.4127540932    5.7292517085
H        3.6732239315   -1.6688431054    2.7254206369
H        3.9926316481   -1.5674540207    0.2631019467
15   

H        2.0780868353   -0.9098249118   -1.2148586211
C        1.9525834952   -0.9734707493   -0.1374505181
C        3.0178275610   -1.3854872239    0.6707002805
C        2.8537545594   -1.4680159714    2.0594546257
C        1.6377601395   -1.1415041076    2.6452017903
C        0.5679591207   -0.7298469803    1.8353317939
C        0.7247766591   -0.6452633694    0.4467129101
H       -0.1065119143   -0.3263711695   -0.1756232705
H       -0.3858865815   -0.4777538227    2.2914383169
C        1.4730089987   -1.2405544486    4.1258747246
O        1.1012532053   -2.2147593928    4.7218263265
O        1.7928669071   -0.0917312439    4.7602210138
H        1.6470277340   -0.2803551192    5.6983165663
H        3.6824125499   -1.7907054198    2.6845548267
H        3.9726394029   -1.6427917582    0.2210765792
15   

H        2.0619297248   -0.8790485106   -1.2142882249
C        1.9514687434   -0.9557130519   -0.1360817034
C        3.0114371106   -1.4250706168    0.6471003723
C        2.8664447572   -1.5247666222    2.0368281587
C        1.6710777304   -1.1693990617    2.6487218174
C        0.6126024706   -0.6836214777    1.8642057999
C        0.7500733862   -0.5820550079    0.4747117888
H       -0.0749030338   -0.2118176302   -0.1272480690
H       -0.3175963841   -0.3865703856    2.3416231017
C        1.5383119488   -1.2544280516    4.1318157707
O        1.4097146879   -2.2666544531    4.7662480239
O        1.5122983727   -0.0369473722    4.7172102238
H        1.4076208638   -0.2213792365    5.6616663088
H        3.6920747354   -1.8895834887    2.6426973103
H        3.9478262399   -1.7126182796    0.1774791562
15   

H        2.0487278812   -0.8846200547   -1.2172486725
C        1.9501730869   -0.9588588146   -0.1377202620
C        3.0022848636   -1.4686807325    0.6303329454
C        2.8726607065   -1.5653425127    2.0217252364
C        1.6979208442   -1.1710126480    2.6518016138
C        0.6503151272   -0.6382453078    1.8810810057
C        0.7728983290   -0.5398077376    0.4900048764
H       -0.0447279662   -0.1354379650   -0.0998975141
H       -0.2602933157   -0.3018339308    2.3702935148
C        1.5964290045   -1.2427548451    4.1339544843
O        1.7085418184   -2.2410864406    4.7950790157
O        1.2701391706   -0.0543676525    4.6902010352
H        1.2143576766   -0.2363845669    5.6393816595
H        3.6927048899   -1.9612312302    2.6159925428
H        3.9210355298   -1.7898438221    0.1478195189
15   

H        2.0333477282   -0.9131399120   -1.2227799328
C        1.9445720182   -0.9746811086   -0.1416052983
C        2.9880040005   -1.5117231310    0.6193108780
C        2.8713850995   -1.5919213787    2.0127836059
C        1.7174240984   -1.1528007744    2.6543384806
C        0.6776821798   -0.5944723408    1.8881688371
C        0.7885125928   -0.5127331077    0.4950171883
H       -0.0224203232   -0.0880501589   -0.0898369252
H       -0.2191303098   -0.2253056931    2.3794638519
C        1.6441545613   -1.2154775829    4.1344176728
O        1.9849076384   -2.1537229375    4.8074671940
O        1.0718716528   -0.1194500940    4.6837189205
H        1.0709327845   -0.2970541553    5.6354852468
H        3.6854929215   -2.0098010553    2.6006344871
H        3.8902877158   -1.8671372282    0.1297714731
15   

H        2.0177213300   -0.9530387351   -1.2296520926
C        1.9381290321   -0.9963334099   -0.1468787680
C        2.9725888435   -1.5530640266    0.6115626628
C        2.8683765349   -1.6096800419    2.0070876944
C        1.7361895746   -1.1234446828    2.6558132027
C        0.7023968025   -0.5507023517    1.8890972677
C        0.8022458075   -0.4928426714    0.4939287047
H       -0.0027085667   -0.0551400784   -0.0896010942
H       -0.1835735897   -0.1515398050    2.3766153577
C        1.6838699788   -1.1792633719    4.1339537702
O        2.2303402313   -2.0124054923    4.8120087637
O        0.9059701532   -0.2185100746    4.6851730594
H        0.9569417116   -0.3829527085    5.6380315614
H        3.6777040306   -2.0441233931    2.5899184221
H        3.8587784847   -1.9425879029    0.1185777132
15   

H        1.9967623086   -0.9985489337   -1.2355066795
C        1.9271955219   -1.0218995130   -0.1514282951
C        2.9532646180   -1.5945606484    0.6058808600
C        2.8626774277   -1.6251127168    2.0031200482
C        1.7537231703   -1.0925346466    2.6572694761
C        0.7245634035   -0.5100199035    1.8889142396
C        0.8119451148   -0.4783035456    0.4920856314
H        0.0122837697   -0.0302808417   -0.0909041382
H       -0.1498630476   -0.0810761424    2.3718313377
C        1.7167859944   -1.1395533839    4.1348693982
O        2.4373567390   -1.8226228019    4.8195694351
O        0.7649297021   -0.3497089035    4.6851517794
H        0.8588266859   -0.4875783237    5.6390246065
H        3.6683852977   -2.0734524678    2.5805920118
H        3.8229864807   -2.0170558340    0.1107122875
15   

H        1.9716836835   -1.0475020923   -1.2388640007
C        1.9132132663   -1.0499016521   -0.1538816226
C        2.9316319259   -1.6363232530    0.6029275395
C        2.8559176633   -1.6392787990    2.0013721641
C        1.7711758701   -1.0614683951    2.6583320889
C        0.7462427908   -0.4710202492    1.8892632679
C        0.8193501655   -0.4666600698    0.4912754724
H        0.0247345731   -0.0093776835   -0.0914311616
H       -0.1134980558   -0.0118417554    2.3706635470
C        1.7452535820   -1.0947464362    4.1362315885
O        2.6010901807   -1.5895811598    4.8276185173
O        0.6531705668   -0.5093032020    4.6816360802
H        0.7779857007   -0.6089903275    5.6367401883
H        3.6566943443   -2.0997823438    2.5761517980
H        3.7841533237   -2.0910887411    0.1064277839
15   

H        1.9428082692   -1.0963257493   -1.2386207504
C        1.8962408527   -1.0779957903   -0.1532147331
C        2.9074102112   -1.6776607389    0.6032335737
C        2.8472829559   -1.6530115717    2.0022310415
C        1.7877701653   -1.0308317694    2.6592356365
C        0.7669195919   -0.4332572684    1.8913605391
C        0.8243410679   -0.4558360768    0.4928024716
H        0.0346414369    0.0102412204   -0.0896115848
H       -0.0752428307    0.0541585659    2.3761404312
C        1.7680236527   -1.0466950957    4.1378279895
O        2.7114770644   -1.3258307833    4.8353945750
O        0.5776520910   -0.6891141860    4.6743416098
H        0.7186138869   -0.7416867794    5.6309313249
H        3.6406253056   -2.1237621823    2.5789886555
H        3.7419410899   -2.1639323565    0.1060330682
15   

H        1.9153641667   -1.1385414668   -1.2355604822
C        1.8803414883   -1.1010623431   -0.1502143802
C        2.8824904851   -1.7163503530    0.6063617959
C        2.8371716160   -1.6662333475    2.0052864486
C        1.8045831785   -0.9994947031    2.6597614547
C        0.7894776629   -0.3928851384    1.8941243065
C        0.8314074719   -0.4399927192    0.4956123665
H        0.0476223993    0.0360753957   -0.0866953202
H       -0.0337932454    0.1199083227    2.3852618052
C        1.7840533419   -0.9976994261    4.1397371598
O        2.7616547916   -1.0494982360    4.8426783265
O        0.5419985783   -0.8781397996    4.6641637081
H        0.6825483579   -0.8802392708    5.6221930151
H        3.6205536958   -2.1476980054    2.5866193770
H        3.6978777175   -2.2341901738    0.1092896957
15   

H        1.8897881610   -1.1733114090   -1.2310666806
C        1.8653332482   -1.1182842244   -0.1461791271
C        2.8555593569   -1.7517523743    0.6116652669
C        2.8236111673   -1.6785019759    2.0100256110
C        1.8194261163   -0.9679417384    2.6602269800
C        0.8133162252   -0.3486610649    1.8959990886
C        0.8408644638   -0.4178536991    0.4980399729
H        0.0649310414    0.0702597688   -0.0847933660
H        0.0095154183    0.1890713523    2.3926635189
C        1.7934632355   -0.9448832003    4.1430370010
O        2.7502839752   -0.7666230362    4.8516483970
O        0.5468174076   -1.0710113124    4.6534111095
H        0.6708248813   -1.0221742876    5.6123898971
H        3.5954068226   -2.1730649603    2.5954336249
H        3.6506066262   -2.3015119131    0.1159352980
15   

H        1.8737384063   -1.2017563035   -1.2273500633
C        1.8548433588   -1.1316267333   -0.1432232958
C        2.8264982384   -1.7872615032    0.6201855958
C        2.8015836751   -1.6941567534    2.0176222523
C        1.8244835839   -0.9416422295    2.6591073548
C        0.8359082591   -0.3018934996    1.8917941995
C        0.8555563451   -0.3900064388    0.4947761441
H        0.0933591176    0.1148180378   -0.0919266222
H        0.0524914572    0.2650287842    2.3883488005
C        1.7910699962   -0.8900048866    4.1451899715
O        2.6770102737   -0.4859195492    4.8509845332
O        0.5974142759   -1.2735543095    4.6513670859
H        0.6959589391   -1.1758833517    5.6094562922
H        3.5577841034   -2.2057501850    2.6082042055
H        3.6011891300   -2.3695057905    0.1293563625
15   

H        1.8759932330   -1.2160239826   -1.2250214379
C        1.8528317353   -1.1344747190   -0.1417755524
C        2.7940652085   -1.8190167607    0.6345525732
C        2.7635605273   -1.7112254378    2.0308891714
C        1.8088804705   -0.9196584023    2.6566764989
C        0.8545992062   -0.2450489539    1.8781750416
C        0.8795032347   -0.3474886700    0.4821831016
H        0.1425622782    0.1822963358   -0.1146949020
H        0.0943199546    0.3599493282    2.3654009534
C        1.7699864762   -0.8345619914    4.1451889787
O        2.5399579867   -0.2183024690    4.8314923067
O        0.7111675271   -1.4888448472    4.6709636155
H        0.7857918067   -1.3483257008    5.6257700771
H        3.4961626826   -2.2446375860    2.6313882966
H        3.5494037693   -2.4346843274    0.1544802352
15   

H        1.9106466524   -1.2132795195   -1.2245241092
C        1.8684755451   -1.1259016314   -0.1423056440
C        2.7633789424   -1.8466281740    0.6560121859
C        2.7082077333   -1.7317931572    2.0510529156
C        1.7676188039   -0.9061614372    2.6526979286
C        0.8706340335   -0.1813076723    1.8528038209
C        0.9201932632   -0.2911092299    0.4579934266
H        0.2238370341    0.2723222719   -0.1565537172
H        0.1363161597    0.4686380036    2.3215826849
C        1.7235761227   -0.7864501195    4.1403386036
O        2.3327034541    0.0170083868    4.7929140153
O        0.9060196646   -1.6989718588    4.7090253125
H        0.9623962000   -1.5211176827    5.6587941635
H        3.4062956298   -2.2911159882    2.6686159235
H        3.5024428338   -2.4949347524    0.1939343861
15   

H        1.9514618700   -1.2012021523   -1.2237355200
C        1.8846862258   -1.1143252170   -0.1427155007
C        2.7255932201   -1.8757525958    0.6763716223
C        2.6387882206   -1.7617532588    2.0698602660
C        1.7112776663   -0.9050374246    2.6491887030
C        0.8813247390   -0.1260211403    1.8284328605
C        0.9626039721   -0.2353279754    0.4350646428
H        0.3135546484    0.3652767729   -0.1958568750
H        0.1751458536    0.5660284041    2.2801698776
C        1.6627576143   -0.7599503163    4.1322825295
O        2.0749834754    0.1840236460    4.7509227253
O        1.1553145900   -1.8515669283    4.7458418303
H        1.1932876463   -1.6419972414    5.6900963056
H        3.2972782554   -2.3501739716    2.7037193331
H        3.4482927280   -2.5539658449    0.2316801187
15   

H        1.9884327310   -1.1981721569   -1.2223636293
C        1.8991833235   -1.1130902359   -0.1428246064
C        2.6940529990   -1.9055306228    0.6924233759
C        2.5786730363   -1.7936296870    2.0840381168
C        1.6632396550   -0.9118325715    2.6466059170
C        0.8864727557   -0.0964223348    1.8086642920
C        0.9963933350   -0.2033945785    0.4171691233
H        0.3858299281    0.4242341335   -0.2257663579
H        0.1995307758    0.6232956309    2.2471974877
C        1.5962129775   -0.7529458054    4.1231748595
O        1.7812220763    0.2768979128    4.7161909590
O        1.3883500095   -1.9219453835    4.7700384695
H        1.3883598348   -1.6850308676    5.7086951814
H        3.2045958887   -2.4055552009    2.7287742007
H        3.4041913017   -2.6057748002    0.2618732919
15   

H        2.0149212125   -1.1944450582   -1.2224271568
C        1.9110575890   -1.1123897248   -0.1439611497
C        2.6681553320   -1.9321837653    0.6994087004
C        2.5343863698   -1.8244260447    2.0897928548
C        1.6372779206   -0.9181442789    2.6452156359
C        0.8985684391   -0.0769155017    1.7970060202
C        1.0272049354   -0.1795221076    0.4069582952
H        0.4454532201    0.4694411353   -0.2415043231
H        0.2252664118    0.6605116323    2.2278621883
C        1.5411089085   -0.7595789055    4.1160822823
O        1.4896697931    0.2955813614    4.6937461185
O        1.5887204144   -1.9344694623    4.7856600932
H        1.5333016899   -1.6844648070    5.7193980954
H        3.1353325489   -2.4599886507    2.7355671622
H        3.3639638735   -2.6510318368    0.2761765344
15   

H        2.0401898516   -1.1866242385   -1.2236677550
C        1.9256875738   -1.1083731001   -0.1459963637
C        2.6489146083   -1.9537309278    0.7011561768
C        2.5017305012   -1.8517560583    2.0907516065
C        1.6270662862   -0.9213713044    2.6441669162
C        0.9177629128   -0.0597454308    1.7893950985
C        1.0602870776   -0.1566563300    0.4005041411
H        0.5019659372    0.5104015578   -0.2502089537
H        0.2537795086    0.6897796185    2.2143290342
C        1.4956755607   -0.7734985858    4.1107632085
O        1.2113619973    0.2520745689    4.6764041840
O        1.7686385055   -1.9065735066    4.7996562641
H        1.6501556977   -1.6594207258    5.7283707506
H        3.0806739233   -2.5125343826    2.7312363304
H        3.3290999981   -2.6893843131    0.2814014470
15   

H        2.0648543638   -1.1740148032   -1.2244986607
C        1.9406965489   -1.1009785050   -0.1475290470
C        2.6308886225   -1.9717996985    0.7007446671
C        2.4713793375   -1.8776009104    2.0896492677
C        1.6211153547   -0.9241296484    2.6435138879
C        0.9377947520   -0.0436270077    1.7850007214
C        1.0931442970   -0.1330638771    0.3971583597
H        0.5565606249    0.5511371809   -0.2540570036
H        0.2815442444    0.7154853233    2.2051759090
C        1.4546566499   -0.7934309211    4.1070616868
O        0.9511186087    0.1524007142    4.6606327138
O        1.9392712825   -1.8416860211    4.8143198218
H        1.7607420980   -1.6121339068    5.7380081088
H        3.0265239977   -2.5652977484    2.7226372272
H        3.2946140709   -2.7230497557    0.2822451481
15   

H        2.0869133949   -1.1573567928   -1.2238971896
C        1.9531978381   -1.0915837398   -0.1476030343
C        2.6109762801   -1.9883131116    0.6991181651
C        2.4389648236   -1.9040534453    2.0872114912
C        1.6135344168   -0.9298471498    2.6431869150
C        0.9544077532   -0.0303193497    1.7846256692
C        1.1225171805   -0.1098426510    0.3977283255
H        0.6071071155    0.5915444097   -0.2523109564
H        0.3061436693    0.7364525352    2.2033545053
C        1.4158270656   -0.8205743991    4.1043664813
O        0.7150869652    0.0001981621    4.6434598662
O        2.0995468478   -1.7382239376    4.8286323066
H        1.8698878976   -1.5386220558    5.7479960374
H        2.9660070502   -2.6178585323    2.7151962435
H        3.2580458893   -2.7535749783    0.2799109659
