15   

H        2.1271730848   -1.0610753013   -1.2209014121
C        1.9701896297   -1.0475288602   -0.1458266710
C        3.0517428799   -1.2090817057    0.7250384983
C        2.8496089340   -1.1921315220    2.1114825651
C        1.5750277870   -1.0076546219    2.6408534493
C        0.4892325671   -0.8565613564    1.7591072187
C        0.6850929872   -0.8725804140    0.3736033560
H       -0.1620505720   -0.7512105848   -0.2955391752
H       -0.5139330189   -0.7261667587    2.1592565651
C        1.3363210858   -1.0078906867    4.1002309048
O        0.2532050539   -1.1124340541    4.6203452440
O        2.4619738037   -0.8943852700    4.8444933714
H        2.1477989028   -0.9106655951    5.7603514252
H        3.7101017055   -1.3264424273    2.7620969382
H        4.0522054179   -1.3500597207    0.3259772577
15   

H        2.1246498360   -1.0335573998   -1.2187924150
C        1.9683910658   -1.0309815567   -0.1435314220
C        3.0460756275   -1.2339520192    0.7240823055
C        2.8439259868   -1.2315912278    2.1105048385
C        1.5758537613   -1.0141836917    2.6412106212
C        0.4920515791   -0.8312662033    1.7648206681
C        0.6874151187   -0.8324162591    0.3789798702
H       -0.1568485335   -0.6835751915   -0.2882393397
H       -0.5072636324   -0.6894663184    2.1703974314
C        1.3412581693   -1.0533494998    4.1018494937
O        0.3073782575   -1.3862224383    4.6242210238
O        2.4261773895   -0.7149074910    4.8376133527
H        2.1290274123   -0.7915570998    5.7560141362
H        3.6941598784   -1.4007067708    2.7666499613
H        4.0421699082   -1.3970806507    0.3225635243
15   

H        2.1177453103   -1.0080956519   -1.2164917924
C        1.9639257956   -1.0165757649   -0.1409094854
C        3.0381743848   -1.2615940720    0.7207679097
C        2.8382729610   -1.2736887314    2.1073345668
C        1.5785464729   -1.0245832249    2.6418253198
C        0.4961199865   -0.8062763107    1.7737745320
C        0.6889194230   -0.7925998878    0.3874306123
H       -0.1526104782   -0.6144353473   -0.2760277031
H       -0.4980999283   -0.6504518928    2.1861056561
C        1.3535898644   -1.0994205047    4.1052576715
O        0.4186272776   -1.6454773707    4.6319184925
O        2.3541384812   -0.5472933203    4.8298452252
H        2.0880912246   -0.6790165138    5.7514243479
H        3.6787885578   -1.4750772482    2.7669380724
H        4.0284920356   -1.4467004295    0.3145362896
15   

H        2.1067610648   -0.9837240051   -1.2155332882
C        1.9581517611   -1.0062205973   -0.1394208071
C        3.0296496506   -1.2973250057    0.7117955130
C        2.8360243652   -1.3272288295    2.0988935466
C        1.5870257975   -1.0499551465    2.6422064415
C        0.5058422097   -0.7862422390    1.7866922961
C        0.6923849339   -0.7543513816    0.3996201341
H       -0.1466317624   -0.5407507769   -0.2565027766
H       -0.4808919522   -0.6098406005    2.2079199759
C        1.3771931461   -1.1498765936    4.1105319093
O        0.5893773061   -1.8830917488    4.6473898020
O        2.2370624597   -0.3838140895    4.8190321055
H        2.0115233903   -0.5556690457    5.7446685984
H        3.6699132590   -1.5622555660    2.7556344457
H        4.0120835948   -1.5040852103    0.2969636700
15   

H        2.0896334059   -0.9507912429   -1.2157596612
C        1.9514579269   -0.9933129543   -0.1388611941
C        3.0217382632   -1.3390448730    0.6934664765
C        2.8415350846   -1.3943120820    2.0815637010
C        1.6068433651   -1.0943036303    2.6431602318
C        0.5275841639   -0.7671075036    1.8080131219
C        0.7008689983   -0.7096715719    0.4199559357
H       -0.1361614546   -0.4497468297   -0.2218167641
H       -0.4463805628   -0.5603689608    2.2442921736
C        1.4183744819   -1.2028470139    4.1181755102
O        0.8236908824   -2.0837035743    4.6786892923
O        2.0538823583   -0.2230831288    4.7977141216
H        1.8715634490   -0.4127548032    5.7292517709
H        3.6732239342   -1.6688431247    2.7254206231
H        3.9926316308   -1.5674540356    0.2631019294
15   

H        2.0780868651   -0.9098248698   -1.2148586130
C        1.9525835161   -0.9734707150   -0.1374505116
C        3.0178275722   -1.3854872140    0.6707002859
C        2.8537545594   -1.4680159714    2.0594546257
C        1.6377601395   -1.1415041076    2.6452017903
C        0.5679591352   -0.7298469414    1.8353317977
C        0.7247766822   -0.6452633151    0.4467129154
H       -0.1065118816   -0.3263710880   -0.1756232640
H       -0.3858865568   -0.4777537571    2.2914383288
C        1.4730089987   -1.2405544486    4.1258747246
O        1.1012532053   -2.2147593928    4.7218263265
O        1.7928668747   -0.0917312329    4.7602210084
H        1.6470277540   -0.2803551261    5.6983165649
H        3.6824125444   -1.7907054354    2.6845548260
H        3.9726394210   -1.6427917513    0.2210765989
15   

H        2.0619297821   -0.8790484253   -1.2142882172
C        1.9514687824   -0.9557129893   -0.1360816993
C        3.0114371308   -1.4250705865    0.6471003789
C        2.8664447572   -1.5247666222    2.0368281587
C        1.6710777304   -1.1693990617    2.6487218174
C        0.6126024854   -0.6836214460    1.8642057981
C        0.7500734244   -0.5820549445    0.4747117908
H       -0.0749029756   -0.2118175359   -0.1272480748
H       -0.3175963731   -0.3865703403    2.3416230836
C        1.5383119488   -1.2544280516    4.1318157707
O        1.4097146879   -2.2666544531    4.7662480239
O        1.5122991309   -0.0369473994    4.7172103139
H        1.4076198128   -0.2213792144    5.6616662082
H        3.6920747260   -1.8895834972    2.6426973190
H        3.9478262641   -1.7126182498    0.1774791726
15   

H        2.0487277851   -0.8846202662   -1.2172486848
C        1.9501730197   -0.9588589493   -0.1377202671
C        3.0022848307   -1.4686807945    0.6303329406
C        2.8726607065   -1.5653425127    2.0217252364
C        1.6979208442   -1.1710126480    2.6518016138
C        0.6503151082   -0.6382453409    1.8810810138
C        0.7728982742   -0.5398078449    0.4900048771
H       -0.0447280394   -0.1354381132   -0.0998975156
H       -0.2602933263   -0.3018339424    2.3702935205
C        1.5964290045   -1.2427548451    4.1339544843
O        1.7085418184   -2.2410864406    4.7950790157
O        1.2701399354   -0.0543674889    4.6902011189
H        1.2143557729   -0.2363850289    5.6393814653
H        3.6927049081   -1.9612311786    2.6159925528
H        3.9210354961   -1.7898438801    0.1478195120
15   

H        2.0333477413   -0.9131398676   -1.2227799277
C        1.9445720302   -0.9746810728   -0.1416052935
C        2.9880039960   -1.5117231362    0.6193108760
C        2.8713850995   -1.5919213787    2.0127836059
C        1.7174240984   -1.1528007744    2.6543384806
C        0.6776822017   -0.5944722949    1.8881688473
C        0.7885126235   -0.5127330348    0.4950171991
H       -0.0224202620   -0.0880500244   -0.0898369126
H       -0.2191302676   -0.2253056154    2.3794638702
C        1.6441545613   -1.2154775829    4.1344176728
O        1.9849076384   -2.1537229375    4.8074671940
O        1.0718723191   -0.1194497874    4.6837189875
H        1.0709313050   -0.2970549013    5.6354851161
H        3.6854929145   -2.0098010627    2.6006344922
H        3.8902876896   -1.8671372742    0.1297714604
15   

H        2.0177212278   -0.9530388113   -1.2296520816
C        1.9381289583   -0.9963334652   -0.1468787552
C        2.9725888084   -1.5530640446    0.6115626588
C        2.8683765349   -1.6096800419    2.0070876944
C        1.7361895746   -1.1234446828    2.6558132027
C        0.7023967672   -0.5507023894    1.8890972953
C        0.8022457324   -0.4928427421    0.4939287327
H       -0.0027086740   -0.0551401807   -0.0896010485
H       -0.1835736134   -0.1515398479    2.3766154142
C        1.6838699788   -1.1792633719    4.1339537702
O        2.2303402313   -2.0124054923    4.8120087637
O        0.9059704671   -0.2185098353    4.6851730869
H        0.9569405519   -0.3829535935    5.6380314711
H        3.6777040515   -2.0441233642    2.5899184149
H        3.8587784468   -1.9425879090    0.1185776921
15   

H        1.9967622412   -0.9985490442   -1.2355066872
C        1.9271954773   -1.0218995896   -0.1514283002
C        2.9532645897   -1.5945606955    0.6058808560
C        2.8626774277   -1.6251127168    2.0031200482
C        1.7537231703   -1.0925346466    2.6572694761
C        0.7245633879   -0.5100199280    1.8889142386
C        0.8119450821   -0.4783036033    0.4920856261
H        0.0122837289   -0.0302809182   -0.0909041459
H       -0.1498630649   -0.0810761683    2.3718313314
C        1.7167859944   -1.1395533839    4.1348693982
O        2.4373567390   -1.8226228019    4.8195694351
O        0.7649298261   -0.3497087555    4.6851517814
H        0.8588262275   -0.4875788372    5.6390245717
H        3.6683853119   -2.0734524420    2.5805920121
H        3.8229864443   -2.0170558892    0.1107122789
15   

H        1.9716837447   -1.0475019168   -1.2388639904
C        1.9132133113   -1.0499015335   -0.1538816129
C        2.9316319444   -1.6363231943    0.6029275397
C        2.8559176633   -1.6392787990    2.0013721641
C        1.7711758701   -1.0614683951    2.6583320889
C        0.7462428163   -0.4710201936    1.8892632773
C        0.8193502135   -0.4666599541    0.4912754860
H        0.0247346430   -0.0093775192   -0.0914311407
H       -0.1134980229   -0.0118416909    2.3706635629
C        1.7452535820   -1.0947464362    4.1362315885
O        2.6010901807   -1.5895811598    4.8276185173
O        0.6531705641   -0.5093032122    4.6816360814
H        0.7779857003   -0.6089903532    5.6367401874
H        3.6566943285   -2.0997823784    2.5761517923
H        3.7841533420   -2.0910886718    0.1064277756
15   

H        1.9428083263   -1.0963256286   -1.2386207440
C        1.8962408872   -1.0779957113   -0.1532147257
C        2.9074102272   -1.6776606937    0.6032335730
C        2.8472829559   -1.6530115717    2.0022310415
C        1.7877701653   -1.0308317694    2.6592356365
C        0.7669195976   -0.4332572559    1.8913605476
C        0.8243410909   -0.4558360198    0.4928024809
H        0.0346414669    0.0102412917   -0.0896115695
H       -0.0752428325    0.0541585562    2.3761404471
C        1.7680236527   -1.0466950957    4.1378279895
O        2.7114770644   -1.3258307833    4.8353945750
O        0.5776520294   -0.6891143876    4.6743416050
H        0.7186140893   -0.7416861183    5.6309313306
H        3.6406252949   -2.1237622038    2.5789886527
H        3.7419411106   -2.1639322931    0.1060330578
15   

H        1.9153640811   -1.1385415611   -1.2355604776
C        1.8803414238   -1.1010624070   -0.1502143758
C        2.8824904493   -1.7163503807    0.6063617936
C        2.8371716160   -1.6662333475    2.0052864486
C        1.8045831785   -0.9994947031    2.6597614547
C        0.7894776213   -0.3928852004    1.8941243200
C        0.8314074006   -0.4399928013    0.4956123809
H        0.0476222944    0.0360752748   -0.0866952923
H       -0.0337933026    0.1199082151    2.3852618368
C        1.7840533419   -0.9976994261    4.1397371598
O        2.7616547916   -1.0494982360    4.8426783265
O        0.5419985386   -0.8781402583    4.6641637173
H        0.6825484816   -0.8802379900    5.6221930040
H        3.6205537142   -2.1476979826    2.5866193713
H        3.6978776698   -2.2341902059    0.1092896798
15   

H        1.8897881841   -1.1733112544   -1.2310666773
C        1.8653332511   -1.1182841320   -0.1461791216
C        2.8555593630   -1.7517523022    0.6116652577
C        2.8236111673   -1.6785019759    2.0100256110
C        1.8194261163   -0.9679417384    2.6602269800
C        0.8133161976   -0.3486610830    1.8959991094
C        0.8408644345   -0.4178536692    0.4980399925
H        0.0649309950    0.0702597820   -0.0847933401
H        0.0095153631    0.1890712771    2.3926635557
C        1.7934632355   -0.9448832003    4.1430370010
O        2.7502839752   -0.7666230362    4.8516483970
O        0.5468174862   -1.0710119165    4.6534111388
H        0.6708246932   -1.0221723867    5.6123898334
H        3.5954068196   -2.1730649822    2.5954336107
H        3.6506066444   -2.3015117910    0.1159352546
15   

H        1.8737384921   -1.2017562239   -1.2273500688
C        1.8548434209   -1.1316266629   -0.1432233010
C        2.8264982632   -1.7872614769    0.6201855980
C        2.8015836751   -1.6941567534    2.0176222523
C        1.8244835839   -0.9416422295    2.6591073548
C        0.8359083000   -0.3018934450    1.8917941983
C        0.8555564239   -0.3900063411    0.4947761385
H        0.0933592393    0.1148181939   -0.0919266329
H        0.0524915110    0.2650288591    2.3883487908
C        1.7910699962   -0.8900048866    4.1451899715
O        2.6770102737   -0.4859195492    4.8509845332
O        0.5974145533   -1.2735550797    4.6513671466
H        0.6959583325   -1.1758815566    5.6094561821
H        3.5577840778   -2.2057502112    2.6082042166
H        3.6011891509   -2.3695057802    0.1293563780
15   

H        1.8759932645   -1.2160239385   -1.2250214389
C        1.8528317600   -1.1344746833   -0.1417755538
C        2.7940652213   -1.8190167410    0.6345525715
C        2.7635605273   -1.7112254378    2.0308891714
C        1.8088804705   -0.9196584023    2.6566764989
C        0.8545992224   -0.2450489320    1.8781750394
C        0.8795032604   -0.3474886345    0.4821830986
H        0.1425623118    0.1822963833   -0.1146949069
H        0.0943199770    0.3599493624    2.3654009369
C        1.7699864762   -0.8345619914    4.1451889787
O        2.5399579867   -0.2183024690    4.8314923067
O        0.7111678951   -1.4888453913    4.6709636752
H        0.7857911102   -1.3483246311    5.6257699817
H        3.4961626662   -2.2446376013    2.6313883041
H        3.5494037816   -2.4346843064    0.1544802284
15   

H        1.9106466250   -1.2132795263   -1.2245241050
C        1.8684755246   -1.1259016379   -0.1423056411
C        2.7633789455   -1.8466281617    0.6560121854
C        2.7082077333   -1.7317931572    2.0510529156
C        1.7676188039   -0.9061614372    2.6526979286
C        0.8706340143   -0.1813076893    1.8528038277
C        0.9201932301   -0.2911092600    0.4579934360
H        0.2238369757    0.2723222184   -0.1565537048
H        0.1363161335    0.4686379740    2.3215826977
C        1.7235761227   -0.7864501195    4.1403386036
O        2.3327034541    0.0170083868    4.7929140153
O        0.9060196460   -1.6989718407    4.7090253147
H        0.9623962263   -1.5211176943    5.6587941710
H        3.4062956405   -2.2911159803    2.6686159185
H        3.5024428524   -2.4949347161    0.1939343782
15   

H        1.9514617503   -1.2012022161   -1.2237355108
C        1.8846861459   -1.1143252572   -0.1427154917
C        2.7255931769   -1.8757526116    0.6763716205
C        2.6387882206   -1.7617532588    2.0698602660
C        1.7112776663   -0.9050374246    2.6491887030
C        0.8813247120   -0.1260211591    1.8284328768
C        0.9626039055   -0.2353280131    0.4350646626
H        0.3135545514    0.3652767197   -0.1958568403
H        0.1751458408    0.5660283847    2.2801699155
C        1.6627576143   -0.7599503163    4.1322825295
O        2.0749834754    0.1840236460    4.7509227253
O        1.1553138840   -1.8515666195    4.7458417978
H        1.1932888200   -1.6419977539    5.6900963804
H        3.2972782795   -2.3501739534    2.7037193228
H        3.4482926806   -2.5539658500    0.2316800991
15   

H        1.9884328668   -1.1981720991   -1.2223636338
C        1.8991834168   -1.1130901950   -0.1428246129
C        2.6940530519   -1.9055306046    0.6924233807
C        2.5786730363   -1.7936296870    2.0840381168
C        1.6632396550   -0.9118325715    2.6466059170
C        0.8864727786   -0.0964223261    1.8086642765
C        0.9963934103   -0.2033945452    0.4171691060
H        0.3858300319    0.4242341816   -0.2257663859
H        0.1995307782    0.6232956291    2.2471974594
C        1.5962129775   -0.7529458054    4.1231748595
O        1.7812220763    0.2768979128    4.7161909590
O        1.3883492471   -1.9219452487    4.7700384571
H        1.3883619312   -1.6850311481    5.7086952754
H        3.2045958509   -2.4055552317    2.7287742050
H        3.4041913605   -2.6057747858    0.2618733104
15   

H        2.0149212611   -1.1944449671   -1.2224271505
C        1.9110576378   -1.1123896565   -0.1439611420
C        2.6681553658   -1.9321837200    0.6994086993
C        2.5343863698   -1.8244260447    2.0897928548
C        1.6372779206   -0.9181442789    2.6452156359
C        0.8985684711   -0.0769154636    1.7970060310
C        1.0272049851   -0.1795220431    0.4069583079
H        0.4454532909    0.4694412181   -0.2415043096
H        0.2252664567    0.6605116791    2.2278622092
C        1.5411089085   -0.7595789055    4.1160822823
O        1.4896697931    0.2955813614    4.6937461185
O        1.5887197811   -1.9344694981    4.7856600638
H        1.5333035157   -1.6844646718    5.7193981652
H        3.1353325030   -2.4599886882    2.7355671658
H        3.3639639093   -2.6510317825    0.2761765211
15   

H        2.0401899597   -1.1866240381   -1.2236677476
C        1.9256876583   -1.1083729526   -0.1459963543
C        2.6489146437   -1.9537308493    0.7011561696
C        2.5017305012   -1.8517560583    2.0907516065
C        1.6270662862   -0.9213713044    2.6441669162
C        0.9177629806   -0.0597453517    1.7893951240
C        1.0602871797   -0.1566561784    0.4005041687
H        0.5019660871    0.5104017764   -0.2502088999
H        0.2537796177    0.6897797186    2.2143290876
C        1.4956755607   -0.7734985858    4.1107632085
O        1.2113619973    0.2520745689    4.6764041840
O        1.7686382090   -1.9065735853    4.7996562478
H        1.6501570350   -1.6594203487    5.7283708221
H        3.0806738768   -2.5125344246    2.7312363284
H        3.3291000200   -2.6893842293    0.2814014132
15   

H        2.0648547420   -1.1740145920   -1.2244986467
C        1.9406968129   -1.1009783550   -0.1475290426
C        2.6308887406   -1.9717996444    0.7007446826
C        2.4713793375   -1.8776009104    2.0896492677
C        1.6211153547   -0.9241296484    2.6435138879
C        0.9377948879   -0.0436269192    1.7850007033
C        1.0931445740   -0.1330637071    0.3971583481
H        0.5565610352    0.5511374442   -0.2540570256
H        0.2815444013    0.7154854406    2.2051758675
C        1.4546566499   -0.7934309211    4.1070616868
O        0.9511186087    0.1524007142    4.6606327138
O        1.9392710993   -1.8416861172    4.8143198082
H        1.7607425471   -1.6121336923    5.7380081405
H        3.0265239132   -2.5652978111    2.7226372333
H        3.2946141717   -2.7230497328    0.2822451912
15   

H        2.0869133152   -1.1573567893   -1.2238971967
C        1.9531977871   -1.0915837379   -0.1476030367
C        2.6109762566   -1.9883131018    0.6991181560
C        2.4389648236   -1.9040534453    2.0872114912
C        1.6135344168   -0.9298471498    2.6431869150
C        0.9544077358   -0.0303193568    1.7846256777
C        1.1225171318   -0.1098426570    0.3977283331
H        0.6071070442    0.5915443984   -0.2523109388
H        0.3061436604    0.7364525262    2.2033545268
C        1.4158270656   -0.8205743991    4.1043664813
O        0.7150869652    0.0001981621    4.6434598662
O        2.0995468460   -1.7382239368    4.8286323125
H        1.8698878941   -1.5386220549    5.7479960446
H        2.9660070641   -2.6178585272    2.7151962377
H        3.2580458669   -2.7535749566    0.2799109378
