15   

H        1.8844939643   -1.1974177759   -1.1372585973
C        1.8989342695   -1.1491108351   -0.0516464811
C        2.9606389836   -1.7132769813    0.6606498624
C        2.9827136172   -1.6488082222    2.0589103201
C        1.9377030497   -1.0273770255    2.7676380588
C        0.8787669589   -0.4514130305    2.0340832398
C        0.8609412193   -0.5150134895    0.6357977788
H        0.0425738687   -0.0641704000    0.0808482456
H        0.0688493518    0.0724065686    2.5336848626
C        1.9680883683   -0.9741836753    4.2380957310
O        2.9986688411   -1.1458666493    4.8281181973
O        0.8176975165   -0.7689074310    4.9117198680
H        0.0392111191   -0.8750488027    4.3499162352
H        3.8160685104   -2.0885449265    2.6033597223
H        3.7727419312   -2.2015660348    0.1292359144
15   

H        1.8836846364   -1.2630060820   -1.1392456384
C        1.8975233693   -1.2018972603   -0.0542866202
C        2.9496734342   -1.7733237541    0.6666851957
C        2.9716435452   -1.6911683297    2.0642101972
C        1.9362484554   -1.0429472602    2.7629974816
C        0.8870066886   -0.4610380824    2.0206386312
C        0.8685998915   -0.5432265448    0.6235236005
H        0.0576361246   -0.0865692015    0.0625010766
H        0.0863567390    0.0823167294    2.5150116453
C        1.9669687079   -0.9570535557    4.2318023284
O        2.9799005709   -1.1865343014    4.8318113293
O        0.8201727735   -0.6788308861    4.8963827097
H        0.0378198781   -0.9607343381    4.4072733019
H        3.7987936143   -2.1346268339    2.6149751355
H        3.7551826264   -2.2796901598    0.1422557460
15   

H        1.8958584186   -1.3125194311   -1.1453669280
C        1.9057491236   -1.2419844340   -0.0609626385
C        2.9499895693   -1.8156584905    0.6699211666
C        2.9671863169   -1.7205146794    2.0668759989
C        1.9351443684   -1.0554354842    2.7547947567
C        0.8935617041   -0.4730728901    2.0023512980
C        0.8794374887   -0.5687297948    0.6062297870
H        0.0740245038   -0.1107452651    0.0383718167
H        0.0955340320    0.0802601678    2.4903459262
C        1.9609905227   -0.9456727612    4.2222483695
O        2.9519553600   -1.2277853219    4.8353878664
O        0.8187513595   -0.5924102168    4.8733903761
H        0.0425735843   -1.0278828458    4.5047395272
H        3.7891225037   -2.1644719302    2.6248728084
H        3.7535397610   -2.3330140979    0.1533492389
15   

H        1.9219749583   -1.3339063159   -1.1566106981
C        1.9243992577   -1.2605666635   -0.0723832658
C        2.9607600693   -1.8366160834    0.6679747310
C        2.9681693258   -1.7376172381    2.0649088729
C        1.9345581929   -1.0648697329    2.7430503093
C        0.9004986094   -0.4818459597    1.9810003796
C        0.8957332370   -0.5817091442    0.5852594725
H        0.0953855088   -0.1228684322    0.0110263435
H        0.0999319445    0.0732066065    2.4631314393
C        1.9493342915   -0.9460609383    4.2102323805
O        2.9158055587   -1.2749738308    4.8379288803
O        0.8161862423   -0.5120029357    4.8460307092
H        0.0570692655   -1.0667189309    4.6424410287
H        3.7844029253   -2.1829981647    2.6299479653
H        3.7659075722   -2.3585210537    0.1586072032
15   

H        1.9614643696   -1.3224402940   -1.1733839806
C        1.9526736835   -1.2536219676   -0.0889322975
C        2.9803878413   -1.8339551187    0.6601897573
C        2.9726559053   -1.7413214923    2.0576734064
C        1.9329503749   -1.0694471327    2.7274525748
C        0.9072855022   -0.4834535566    1.9565352183
C        0.9172673451   -0.5772551335    0.5605013058
H        0.1222357367   -0.1165887591   -0.0195440388
H        0.0997731573    0.0659265839    2.4336880020
C        1.9291469593   -0.9584922434    4.1957048625
O        2.8728577852   -1.3252648400    4.8365564315
O        0.8133844471   -0.4410311361    4.8144917730
H        0.0849205742   -1.0676986832    4.8165559905
H        3.7819609634   -2.1906023245    2.6293893652
H        3.7902789510   -2.3546033660    0.1571921122
15   

H        2.0124626711   -1.2864629278   -1.1912267486
C        1.9887826663   -1.2287799345   -0.1063868703
C        3.0061216300   -1.8165261508    0.6511124149
C        2.9781757770   -1.7393844704    2.0493695869
C        1.9290776009   -1.0744326304    2.7116016046
C        0.9136929706   -0.4819074865    1.9320995205
C        0.9434553062   -0.5606483787    0.5354812565
H        0.1548897881   -0.0960786641   -0.0501666964
H        0.0962582076    0.0568951667    2.4044463182
C        1.8997871122   -0.9847514010    4.1816005266
O        2.8238530391   -1.3846174627    4.8327035659
O        0.8135777641   -0.3840208727    4.7813433930
H        0.1343895329   -1.0226726858    5.0130015120
H        3.7788337255   -2.1957298328    2.6274552615
H        3.8231038556   -2.3317230630    0.1541026125
15   

H        2.0645097822   -1.2497811399   -1.2060705264
C        2.0244656632   -1.2045317061   -0.1211554019
C        3.0313966858   -1.7988552608    0.6450791454
C        2.9814377373   -1.7388643780    2.0436466929
C        1.9210695423   -1.0834148926    2.6976823295
C        0.9160094995   -0.4850755589    1.9090842578
C        0.9674094465   -0.5471030385    0.5123176743
H        0.1854297656   -0.0791805300   -0.0793919901
H        0.0874426456    0.0417462875    2.3755823595
C        1.8644648008   -1.0160943889    4.1688027370
O        2.7728100942   -1.4446641856    4.8270544181
O        0.8118864082   -0.3497796604    4.7476219735
H        0.2118289264   -0.9483311713    5.2015783603
H        3.7735245323   -2.2016499088    2.6282143072
H        3.8568902635   -2.3066736218    0.1546782638
15   

H        2.1054504939   -1.2293084170   -1.2160889153
C        2.0505383163   -1.1935935034   -0.1314942609
C        3.0484489820   -1.7918503974    0.6434470277
C        2.9786942329   -1.7449483640    2.0417404826
C        1.9079302450   -1.0974809796    2.6870002187
C        0.9117411734   -0.4960028492    1.8893556927
C        0.9825138793   -0.5455157244    0.4929978491
H        0.2062853198   -0.0760406238   -0.1049747507
H        0.0733047793    0.0209170645    2.3493631306
C        1.8283881370   -1.0446122746    4.1582436765
O        2.7179718929   -1.5063816611    4.8231421996
O        0.8069430448   -0.3321011349    4.7179690519
H        0.3143682362   -0.8555188143    5.3592646619
H        3.7635711769   -2.2116245680    2.6327608063
H        3.8820101498   -2.2930801470    0.1600400006
15   

H        2.1394917384   -1.2160384390   -1.2221952327
C        2.0722234958   -1.1858809147   -0.1381438766
C        3.0670460544   -1.7782118933    0.6453542565
C        2.9811034523   -1.7386493853    2.0430448362
C        1.8969669539   -1.1044819908    2.6790749500
C        0.9035485344   -0.5098720768    1.8727669117
C        0.9906842506   -0.5516319061    0.4771412658
H        0.2160799399   -0.0875709382   -0.1271102571
H        0.0537434234   -0.0056900204    2.3261890191
C        1.7990648920   -1.0595077510    4.1496555281
O        2.6824298442   -1.5240885205    4.8235997111
O        0.7732368745   -0.3583201056    4.6950982431
H        0.4261107457   -0.8002211738    5.4800723659
H        3.7633077729   -2.2011836383    2.6407209186
H        3.9105070902   -2.2694981584    0.1690193425
15   

H        2.1597469687   -1.2033799870   -1.2262395697
C        2.0832537679   -1.1788083628   -0.1426678515
C        3.0755024498   -1.7680908745    0.6464289893
C        2.9774360783   -1.7359621194    2.0435415806
C        1.8837107791   -1.1121655256    2.6732721851
C        0.8925910450   -0.5213318467    1.8614179743
C        0.9918699233   -0.5555156550    0.4664149657
H        0.2186298532   -0.0946605234   -0.1420062101
H        0.0346050180   -0.0271796858    2.3106038224
C        1.7732870249   -1.0739648113    4.1431193128
O        2.6438235577   -1.5544947917    4.8245015410
O        0.7398915337   -0.3917709077    4.6809002893
H        0.5372040601   -0.7272520831    5.5655056809
H        3.7573413412   -2.1965299190    2.6456598381
H        3.9261335472   -2.2515414759    0.1748759266
15   

H        2.1789430506   -1.1891619714   -1.2286856937
C        2.0951959364   -1.1693587281   -0.1455579677
C        3.0879530359   -1.7519804944    0.6479101582
C        2.9803061816   -1.7262451223    2.0444750591
C        1.8762491176   -1.1158346055    2.6690326786
C        0.8843682737   -0.5322703462    1.8529575450
C        0.9934316321   -0.5596099173    0.4585595364
H        0.2193019709   -0.1046351903   -0.1531420986
H        0.0177622051   -0.0501250207    2.2987511644
C        1.7556122556   -1.0841983111    4.1380086188
O        2.6168413565   -1.5725990153    4.8267423208
O        0.6983528723   -0.4453050078    4.6712337923
H        0.6316876847   -0.6531752277    5.6154516743
H        3.7600858407   -2.1822079408    2.6502158907
H        3.9460947518   -2.2257185773    0.1801389809
15   

H        2.1947093391   -1.1718833961   -1.2287385124
C        2.1059432029   -1.1574053254   -0.1459280014
C        3.1015683232   -1.7322138092    0.6496834689
C        2.9872630697   -1.7136294735    2.0458506411
C        1.8733528688   -1.1187091679    2.6677265029
C        0.8783351927   -0.5435165638    1.8495569847
C        0.9943545297   -0.5631265877    0.4556079277
H        0.2175710894   -0.1149024104   -0.1577146349
H        0.0034069380   -0.0748170759    2.2934743326
C        1.7453914501   -1.0948628721    4.1361247707
O        2.6008503096   -1.5892390423    4.8282279659
O        0.6573532767   -0.5109993448    4.6661296362
H        0.6999540803   -0.5653297355    5.6333404788
H        3.7687563875   -2.1642672435    2.6533531818
H        3.9667853170   -2.1948487578    0.1838446452
15   

H        2.2009556158   -1.1492664893   -1.2274152126
C        2.1103648761   -1.1418652939   -0.1446825771
C        3.1111852716   -1.7098742471    0.6492511628
C        2.9943870945   -1.7007229831    2.0452877257
C        1.8725078316   -1.1226104282    2.6688164500
C        0.8719673500   -0.5547396013    1.8522412160
C        0.9908172045   -0.5643441050    0.4584081596
H        0.2096525195   -0.1221186946   -0.1536997213
H       -0.0099823876   -0.1004004097    2.2971487629
C        1.7418442730   -1.1091455964    4.1372136933
O        2.5956126918   -1.6110677238    4.8255151724
O        0.6233657383   -0.5811850372    4.6669061589
H        0.7381070498   -0.4603452269    5.6215966941
H        3.7795614252   -2.1469093269    2.6513400220
H        3.9821044233   -2.1604566228    0.1822177518
15   

H        2.2026709559   -1.1255896829   -1.2237607001
C        2.1119090683   -1.1268762262   -0.1410126816
C        3.1182179308   -1.6906772500    0.6488961855
C        3.0011142847   -1.6930484665    2.0449097879
C        1.8732819493   -1.1310629293    2.6726711628
C        0.8668770932   -0.5679306402    1.8599341923
C        0.9863073640   -0.5655954591    0.4660944585
H        0.2005496337   -0.1274262127   -0.1430496073
H       -0.0207222386   -0.1274456759    2.3074101655
C        1.7424952170   -1.1297652323    4.1413428617
O        2.5948125588   -1.6433128635    4.8216728059
O        0.5999815756   -0.6453155250    4.6728259354
H        0.7516274357   -0.3386777537    5.5778857632
H        3.7903548118   -2.1366977814    2.6475672226
H        3.9934491386   -2.1295458514    0.1787635153
15   

H        2.2024622210   -1.1019337801   -1.2185603821
C        2.1118837368   -1.1140162332   -0.1358547960
C        3.1222826995   -1.6781160091    0.6485447676
C        3.0053429676   -1.6947227957    2.0444457794
C        1.8736969653   -1.1466519089    2.6777308513
C        0.8627352160   -0.5838377188    1.8704078728
C        0.9821118827   -0.5671743391    0.4766435657
H        0.1928120007   -0.1297476168   -0.1284579930
H       -0.0290871712   -0.1557994714    2.3214024061
C        1.7438414781   -1.1595802722    4.1464666813
O        2.5896860048   -1.6921495693    4.8182448066
O        0.5891282398   -0.6919400859    4.6844710685
H        0.7563898927   -0.2017431636    5.4991409894
H        3.7975834141   -2.1390666053    2.6427031434
H        4.0004363161   -2.1065324017    0.1742144138
15   

H        2.1953484535   -1.0663899346   -1.2108993379
C        2.1066524091   -1.0918989811   -0.1282549989
C        3.1239479964   -1.6550238311    0.6478062822
C        3.0094280874   -1.6892463776    2.0435154558
C        1.8734188798   -1.1600202015    2.6850077439
C        0.8549302630   -0.5989561834    1.8860750076
C        0.9721474752   -0.5643011758    0.4923983253
H        0.1772284236   -0.1286993754   -0.1066539697
H       -0.0417761112   -0.1876367947    2.3427179070
C        1.7466703787   -1.1927006338    4.1535260743
O        2.5937320746   -1.7315294789    4.8159687824
O        0.5843146081   -0.7355471359    4.7051185344
H        0.7467312763   -0.0720023406    5.3842247046
H        3.8067823177   -2.1333092788    2.6352568577
H        4.0054200571   -2.0694265704    0.1671658567
15   

H        2.1905483185   -1.0213802762   -1.1987926282
C        2.1017175492   -1.0645431678   -0.1166937688
C        3.1207418546   -1.6369474630    0.6502409339
C        3.0057136418   -1.6948767398    2.0450523282
C        1.8682614874   -1.1791241491    2.6946360352
C        0.8474429130   -0.6093467114    1.9051262795
C        0.9649130138   -0.5516400758    0.5121736912
H        0.1680646135   -0.1106661070   -0.0803958193
H       -0.0525468461   -0.2119629164    2.3674998786
C        1.7415377547   -1.2388741136    4.1617086621
O        2.5707483659   -1.8108536126    4.8153960276
O        0.6010843426   -0.7318112742    4.7354542568
H        0.7746778590    0.0717176422    5.2340679807
H        3.8038044895   -2.1467788378    2.6299683147
H        4.0036712079   -2.0406766504    0.1631571085
15   

H        2.1933781108   -0.9585804446   -1.1807861523
C        2.1027709203   -1.0221897193   -0.0998098266
C        3.1220216018   -1.6064720813    0.6577992590
C        3.0042495755   -1.6921224867    2.0508708927
C        1.8645603575   -1.1913481904    2.7078737537
C        0.8429053557   -0.6101859960    1.9280104369
C        0.9629539368   -0.5253010743    0.5366041661
H        0.1652640890   -0.0772668067   -0.0495701232
H       -0.0614277040   -0.2288688563    2.3953415941
C        1.7335388424   -1.2860344471    4.1719997394
O        2.5470548902   -1.8862473052    4.8167177345
O        0.6300298214   -0.7166576198    4.7707461311
H        0.8013009899    0.1859379278    5.0515046476
H        3.8016422952   -2.1543858410    2.6287677176
H        4.0068226680   -1.9987613277    0.1647041548
15   

H        2.1961043524   -0.8972035691   -1.1598414354
C        2.1040407620   -0.9793015089   -0.0801966286
C        3.1227928911   -1.5758766078    0.6684080932
C        3.0027340175   -1.6868141560    2.0594077430
C        1.8619968356   -1.1980404766    2.7233549384
C        0.8401399705   -0.6051455830    1.9526573291
C        0.9623478575   -0.4955588333    0.5631016490
H        0.1643518615   -0.0402648064   -0.0171147822
H       -0.0679732911   -0.2380851435    2.4240026268
C        1.7266404034   -1.3255009760    4.1840133022
O        2.5229630600   -1.9593881536    4.8163580767
O        0.6772146513   -0.6878127990    4.8066287795
H        0.8182109921    0.2612737249    4.8588856084
H        3.7989454772   -2.1598247431    2.6303677992
H        4.0085828762   -1.9589726426    0.1697916462
15   

H        2.1842789647   -0.8585557077   -1.1414688752
C        2.0943849548   -0.9525244265   -0.0625700544
C        3.1143741529   -1.5582417819    0.6768452191
C        2.9970310640   -1.6853312858    2.0665788713
C        1.8585756052   -1.2025953079    2.7386669144
C        0.8345019348   -0.6014765328    1.9771904385
C        0.9539555711   -0.4762179407    0.5886195494
H        0.1545037540   -0.0157556960    0.0144364043
H       -0.0748396655   -0.2435575783    2.4530393812
C        1.7265273604   -1.3498802070    4.1973750642
O        2.5033872645   -2.0224477502    4.8141403649
O        0.7378355067   -0.6540096401    4.8415042669
H        0.8071218129    0.2927487769    4.6857321843
H        3.7938300781   -2.1659326168    2.6304975808
H        3.9988719131   -1.9363390825    0.1720594058
15   

H        2.1519604263   -0.8483908067   -1.1305815753
C        2.0684125241   -0.9471932458   -0.0515711437
C        3.0908408924   -1.5603963126    0.6780543714
C        2.9819725067   -1.6937185476    2.0677319460
C        1.8505809743   -1.2086898039    2.7499148130
C        0.8228064889   -0.6013036979    1.9982675813
C        0.9337256038   -0.4703463711    0.6093643600
H        0.1321319961   -0.0054407857    0.0417262120
H       -0.0838788488   -0.2448902830    2.4799890204
C        1.7320711998   -1.3605416134    4.2090352845
O        2.4827789562   -2.0780719343    4.8083070248
O        0.8064597221   -0.6146808271    4.8726823357
H        0.7703691066    0.2911116053    4.5467541279
H        3.7807899791   -2.1795731187    2.6243948177
H        3.9708292086   -1.9392237280    0.1658955637
15   

H        2.1034434645   -0.8647388671   -1.1265595027
C        2.0299552114   -0.9618915296   -0.0466415869
C        3.0549701646   -1.5824942221    0.6727644168
C        2.9596126025   -1.7129701873    2.0635164696
C        1.8403905735   -1.2166678695    2.7574640853
C        0.8086418517   -0.6030568404    2.0161144530
C        0.9059175046   -0.4755955492    0.6256773843
H        0.1023005179   -0.0056242412    0.0650784715
H       -0.0911790334   -0.2394289963    2.5047622275
C        1.7446223341   -1.3600076061    4.2189671693
O        2.4629092781   -2.1234719283    4.8019672369
O        0.8796570551   -0.5710231832    4.8998162704
H        0.7137027303    0.2641688277    4.4462888539
H        3.7609846254   -2.2031456492    2.6127938110
H        3.9269254497   -1.9684409772    0.1521711683
15   

H        2.0483831324   -0.9004171521   -1.1277961846
C        1.9860191558   -0.9912990133   -0.0466176690
C        3.0102270962   -1.6234181836    0.6635160838
C        2.9298553228   -1.7446083301    2.0558627549
C        1.8278814170   -1.2264093345    2.7613002102
C        0.7957500150   -0.6018696743    2.0292907930
C        0.8776554325   -0.4847320447    0.6367624317
H        0.0748405497   -0.0057050199    0.0827092017
H       -0.0926428083   -0.2202689501    2.5243608617
C        1.7595309640   -1.3521489483    4.2260582469
O        2.4386431647   -2.1607922615    4.7957947108
O        0.9540667574   -0.5217591351    4.9195930511
H        0.6435555903    0.2202057428    4.3848023805
H        3.7315609179   -2.2417010597    2.5984867930
H        3.8706073254   -2.0242160968    0.1348904402
15   

H        1.9917978391   -0.9392950711   -1.1330649527
C        1.9428091404   -1.0198700043   -0.0503764457
C        2.9616872643   -1.6704031688    0.6501079405
C        2.8991547796   -1.7770410039    2.0443380413
C        1.8214304516   -1.2257578661    2.7626953267
C        0.7944334963   -0.5812705348    2.0399379949
C        0.8580599914   -0.4798275321    0.6450006162
H        0.0601729393    0.0153259932    0.0980748958
H       -0.0754952717   -0.1674586530    2.5406467968
C        1.7842871622   -1.3319355372    4.2312349782
O        2.4463606446   -2.1623385220    4.7902618717
O        1.0071228433   -0.4880721497    4.9361936299
H        0.5258446077    0.1308077647    4.3713537733
H        3.6984623952   -2.2865954891    2.5789397946
H        3.8049752810   -2.0954978955    0.1129563538
