23   
torsion grid (-165,)
H        1.8338661475    0.8488976977   -0.4927123612
C        1.8414899619    0.0903788205    0.2753061093
C        3.0347030814   -0.5016957842    0.6539003080
C        3.0536900909   -1.4730806084    1.6376434051
C        1.8666965772   -1.8504862048    2.2574962600
C        0.6662432956   -1.2665324884    1.8684048804
C        0.6585187522   -0.3003204837    0.8796813289
H       -0.2763020933    0.1516052301    0.5831557628
H       -0.2469547776   -1.5835227960    2.3477596241
O        1.8087240952   -2.8575520936    3.1885241174
C        2.7086911529   -2.9181285897    4.2166671249
C        3.4703393953   -1.8383634597    4.6497026437
C        4.3107045422   -1.9862682975    5.7388766370
C        4.3924168798   -3.1938320541    6.4092463955
C        3.6139496488   -4.2613268141    5.9919516337
C        2.7726561998   -4.1274378449    4.9055459888
H        2.1578973268   -4.9473312637    4.5683088857
H        3.6609186847   -5.2040490353    6.5165423179
H        5.0522603227   -3.3005339076    7.2567119913
H        4.9006710807   -1.1433582233    6.0676425800
H        3.3963743444   -0.8850221874    4.1472317997
H        3.9810883762   -1.9490826803    1.9216577847
H        3.9589526963   -0.2112896255    0.1764872416
23   
torsion grid (-150,)
H        1.9336202391    0.6848398260   -0.6186916041
C        1.8899254980   -0.0076412749    0.2081678527
C        3.0504687011   -0.5884345779    0.6899564724
C        3.0056086701   -1.4754368598    1.7500312482
C        1.7841426440   -1.7797184142    2.3416672824
C        0.6152142283   -1.2061608801    1.8502258853
C        0.6724780939   -0.3252468388    0.7874931593
H       -0.2380111242    0.1180938102    0.4125233951
H       -0.3244907062   -1.4662629179    2.3120972880
O        1.6507934650   -2.6956844041    3.3518743191
C        2.6285443693   -2.8330584680    4.3015392742
C        3.3912416710   -1.7669687193    4.7669248682
C        4.3147945836   -1.9735877047    5.7753233785
C        4.4801134700   -3.2308774880    6.3303792061
C        3.7072658911   -4.2876104127    5.8780322754
C        2.7847299819   -4.0947187491    4.8679555562
H        2.1731651868   -4.9061502443    4.5051500400
H        3.8253276865   -5.2695319757    6.3116126805
H        5.2041795994   -3.3851261061    7.1158907070
H        4.9042772726   -1.1418161343    6.1319871763
H        3.2516698733   -0.7813979886    4.3467366012
H        3.9106129410   -1.9401519011    2.1139447067
H        4.0019235463   -0.3556842703    0.2349106909
23   
torsion grid (-135,)
H        2.0109839063    0.5098511359   -0.7231670787
C        1.9294205622   -0.1136190672    0.1541986289
C        3.0629576578   -0.6684847155    0.7222335851
C        2.9693028177   -1.4674245344    1.8474429235
C        1.7237126212   -1.7100478616    2.4161330511
C        0.5807525514   -1.1607057125    1.8413464064
C        0.6887251874   -0.3682566292    0.7153275992
H       -0.2016161781    0.0561346438    0.2757079714
H       -0.3777859483   -1.3700237617    2.2901089691
O        1.5352500034   -2.5271427914    3.4978301826
C        2.5650091123   -2.7429930044    4.3812335361
C        3.3210102380   -1.6989660751    4.9040026545
C        4.3058105929   -1.9667334436    5.8365659329
C        4.5413599129   -3.2660625996    6.2542485079
C        3.7829935708   -4.3029217087    5.7373973633
C        2.7995553648   -4.0475882414    4.7995110431
H        2.1992183524   -4.8438516115    4.3874952792
H        3.9617087787   -5.3178394963    6.0600856747
H        5.3120889717   -3.4687119752    6.9824257331
H        4.8895686105   -1.1532840094    6.2414864743
H        3.1287242979   -0.6864255756    4.5794806264
H        3.8556467417   -1.9091400897    2.2796204361
H        4.0331980560   -0.4840955698    0.2850169592
23   
torsion grid (-120,)
H        2.0522444556    0.2998963028   -0.8315496219
C        1.9478896895   -0.2426563624    0.0957072317
C        3.0635660444   -0.7608483864    0.7285627955
C        2.9408877185   -1.4568948828    1.9182001436
C        1.6839057230   -1.6340039052    2.4847021059
C        0.5585771986   -1.1178928774    1.8461484131
C        0.6950361078   -0.4282926971    0.6581079215
H       -0.1820268312   -0.0305069121    0.1694966591
H       -0.4089454459   -1.2721059731    2.2977465615
O        1.4624744899   -2.3333758719    3.6385606004
C        2.5268932159   -2.6368282667    4.4595060707
C        3.2824554980   -1.6336461930    5.0563324709
C        4.3085043204   -1.9713924316    5.9191690163
C        4.5862838692   -3.3015423641    6.1878793865
C        3.8333031273   -4.2981753994    5.5907190130
C        2.8082320051   -3.9714888200    4.7211525804
H        2.2118444680   -4.7360894328    4.2474820726
H        4.0490023121   -5.3362584213    5.7955775409
H        5.3888997400   -3.5600919286    6.8620150647
H        4.8926904515   -1.1911443317    6.3841721073
H        3.0570812067   -0.5994304056    4.8397812648
H        3.8152747854   -1.8677639442    2.4020097364
H        4.0435216321   -0.6277991892    0.2942533246
23   
torsion grid (-105,)
H        2.0635164272    0.0807696845   -0.9304133326
C        1.9506254302   -0.3785677135    0.0397825730
C        3.0579312186   -0.8593012448    0.7148846634
C        2.9246400890   -1.4495824864    1.9595748755
C        1.6653058117   -1.5587425584    2.5373136343
C        0.5483858338   -1.0772706776    1.8578483751
C        0.6953929874   -0.4923985494    0.6164347240
H       -0.1751985706   -0.1214558508    0.0960549603
H       -0.4206939849   -1.1742215340    2.3217435230
O        1.4348592280   -2.1372374293    3.7537481295
C        2.5158072705   -2.5252510910    4.5221216987
C        3.2503587065   -1.5802367992    5.2281930718
C        4.2940076704   -1.9904247970    6.0374336748
C        4.6091554745   -3.3350765237    6.1414740131
C        3.8772390647   -4.2728722229    5.4331038547
C        2.8333385686   -3.8734572125    4.6177061974
H        2.2538904641   -4.5926479748    4.0588144247
H        4.1227321617   -5.3215935296    5.5102248465
H        5.4250137409   -3.6512010603    6.7740160774
H        4.8632664143   -1.2563128013    6.5880553737
H        2.9949675318   -0.5347838281    5.1359798165
H        3.7931223723   -1.8280117038    2.4793097446
H        4.0399318711   -0.7784547895    0.2723275400
23   
torsion grid (-90,)
H        2.0362569393   -0.1463213000   -1.0291449112
C        1.9331645969   -0.5196216135   -0.0216391109
C        3.0431392866   -0.9649980267    0.6729649610
C        2.9219846763   -1.4456528760    1.9652054053
C        1.6714168106   -1.4810235211    2.5704953253
C        0.5519801240   -1.0326893412    1.8728562647
C        0.6873876094   -0.5556907508    0.5848887177
H       -0.1851226800   -0.2098823444    0.0505855230
H       -0.4096389038   -1.0680436332    2.3604102334
O        1.4558264083   -1.9363265013    3.8405393647
C        2.5345475915   -2.4056431839    4.5680903607
C        3.2236071627   -1.5445068009    5.4116566455
C        4.2582906458   -2.0321720924    6.1898210787
C        4.6076539218   -3.3706606371    6.1266480685
C        3.9185583703   -4.2266757871    5.2839802020
C        2.8821548837   -3.7486143886    4.5022715553
H        2.3358626934   -4.4032382189    3.8397909285
H        4.1884889049   -5.2710783699    5.2335599700
H        5.4167610616   -3.7469116882    6.7345074081
H        4.7939433503   -1.3630030128    6.8466657906
H        2.9398270796   -0.5034813677    5.4494787965
H        3.7931771466   -1.7915225808    2.5029281229
H        4.0183281019   -0.9405746571    0.2091717594
23   
torsion grid (-75,)
H        1.9638631155   -0.3739111747   -1.1201229407
C        1.8894059837   -0.6596270543   -0.0819274088
C        3.0158032210   -1.0659563092    0.6103197793
C        2.9317864899   -1.4350582284    1.9414631105
C        1.7019229955   -1.3985963208    2.5880979991
C        0.5665827665   -0.9867698179    1.8936863029
C        0.6653367835   -0.6194799412    0.5669651148
H       -0.2191893575   -0.3015504020    0.0351490413
H       -0.3777826400   -0.9617366023    2.4145629643
O        1.5254732395   -1.7283895987    3.9026220519
C        2.5812253365   -2.2805830787    4.6011409328
C        3.2092996717   -1.5282626258    5.5844815402
C        4.2115387600   -2.0994250599    6.3484853091
C        4.5883991008   -3.4144836827    6.1352982004
C        3.9557497897   -4.1643043546    5.1575248422
C        2.9499376465   -3.6040878219    4.3915518378
H        2.4481179931   -4.1780595706    3.6263933569
H        4.2429019325   -5.1921914950    4.9925592213
H        5.3723577575   -3.8561407109    6.7319666617
H        4.7005282152   -1.5130726660    7.1121532551
H        2.9027220453   -0.5051525982    5.7401917628
H        3.8166689751   -1.7451087347    2.4786241254
H        3.9749459603   -1.0963848455    0.1145453991
23   
torsion grid (-60,)
H        1.8692486366   -0.5916475433   -1.1898041732
C        1.8356802353   -0.7913187376   -0.1295929184
C        2.9891545885   -1.1413910824    0.5493924195
C        2.9564538223   -1.4006412959    1.9081342111
C        1.7521040164   -1.3122476907    2.5966313800
C        0.5909037382   -0.9537143172    1.9160666848
C        0.6381153660   -0.6943366107    0.5609410818
H       -0.2663942146   -0.4177873815    0.0397830815
H       -0.3324132126   -0.8825416102    2.4694589136
O        1.6324145361   -1.5166551058    3.9434358634
C        2.6421920928   -2.1589015665    4.6239299687
C        3.2028312011   -1.5252523967    5.7257059384
C        4.1543161715   -2.1826772436    6.4844055985
C        4.5480330474   -3.4674486695    6.1510333537
C        3.9791107533   -4.1012030820    5.0586790956
C        3.0226706000   -3.4560878031    4.2970907665
H        2.5697253143   -3.9442159539    3.4461691427
H        4.2753137032   -5.1072979250    4.8011278297
H        5.2933148496   -3.9764644374    6.7434138999
H        4.5910767986   -1.6869844741    7.3385699682
H        2.8824551015   -0.5252162479    5.9744547041
H        3.8624925177   -1.6626897087    2.4353345235
H        3.9287961186   -1.2116118103    0.0213711260
23   
torsion grid (-45,)
H        1.7617216817   -0.7848378843   -1.2331755362
C        1.7762804278   -0.9054549119   -0.1606534647
C        2.9652987256   -1.1830353221    0.4910983783
C        2.9947083623   -1.3411005181    1.8648320956
C        1.8177823365   -1.2264901433    2.5967676549
C        0.6229314877   -0.9372107305    1.9435156515
C        0.6073517261   -0.7772603600    0.5716786367
H       -0.3236095230   -0.5549721647    0.0716032925
H       -0.2777312198   -0.8393487843    2.5293148306
O        1.7685981212   -1.3157798430    3.9620292825
C        2.7091140879   -2.0522141028    4.6380221013
C        3.1977128245   -1.5325045653    5.8316333468
C        4.0855030634   -2.2710952002    6.5913893260
C        4.4906520807   -3.5262487013    6.1694754389
C        3.9929921669   -4.0474622985    4.9869598371
C        3.0999620326   -3.3207400275    4.2216655501
H        2.7011523434   -3.7290989499    3.3041498496
H        4.2952003613   -5.0310895007    4.6589665213
H        5.1874840109   -4.0991062029    6.7623743189
H        4.4647239728   -1.8620034532    7.5160124607
H        2.8694705855   -0.5544002583    6.1475305939
H        3.9271917126   -1.5436378071    2.3716715360
H        3.8831044130   -1.2732409638   -0.0711292429
23   
torsion grid (-30,)
H        1.6374814643   -0.9656033421   -1.2573346144
C        1.7114721404   -1.0123227235   -0.1814210081
C        2.9389726620   -1.2244219469    0.4231252289
C        3.0427596621   -1.2871732258    1.8004647761
C        1.9020845050   -1.1445083060    2.5840333558
C        0.6699232462   -0.9184742128    1.9791919946
C        0.5805088789   -0.8527691420    0.6015812225
H       -0.3791476753   -0.6797641883    0.1377457719
H       -0.2013203509   -0.7940758793    2.6033741212
O        1.9388981102   -1.1282046425    3.9544780172
C        2.7854260328   -1.9582640550    4.6398562146
C        3.1942244678   -1.5327686797    5.9006154283
C        4.0021181902   -2.3431327957    6.6744361762
C        4.4113700221   -3.5789540516    6.2011187625
C        3.9950080046   -4.0052931717    4.9517673936
C        3.1827262624   -3.2051973424    4.1688752393
H        2.8457552714   -3.5492347238    3.2017351383
H        4.2994000965   -4.9728618282    4.5806614559
H        5.0469688940   -4.2087342585    6.8048606053
H        4.3169940840   -2.0055349419    7.6506527448
H        2.8651685281   -0.5681309245    6.2543966155
H        4.0033019707   -1.4366512161    2.2720988560
H        3.8275013143   -1.3362570955   -0.1805810365
23   
torsion grid (-15,)
H        1.5009749467   -1.1123777142   -1.2575243991
C        1.6402705707   -1.0971438716   -0.1871613178
C        2.9081186706   -1.2463503021    0.3497160616
C        3.0951090969   -1.2289843230    1.7195059662
C        2.0003015341   -1.0702326556    2.5632096068
C        0.7290225875   -0.9071151851    2.0248984862
C        0.5543069894   -0.9203442629    0.6533586787
H       -0.4356777317   -0.7954976205    0.2405497320
H       -0.1065236966   -0.7683207007    2.6933755271
O        2.1326642202   -0.9711959764    3.9268661600
C        2.8690053794   -1.8836210833    4.6306490479
C        3.1803078753   -1.5363833477    5.9436492710
C        3.8981194440   -2.4071670827    6.7386617230
C        4.3177932844   -3.6285039760    6.2363351628
C        4.0021923805   -3.9755400211    4.9348340671
C        3.2822580060   -3.1121417162    4.1278026998
H        3.0232787323   -3.4020856296    3.1200548002
H        4.3163988487   -4.9294660455    4.5373228284
H        4.8830641396   -4.3067052327    6.8572286976
H        4.1345688724   -2.1290926897    7.7550063737
H        2.8461918621   -0.5813984072    6.3180477227
H        4.0850910888   -1.3276660725    2.1407359845
H        3.7607586805   -1.3709987776   -0.3013904211
23   
torsion grid (0,)
H        1.2528286954   -1.3071035699   -1.2079459719
C        1.5916064435   -1.2006370552   -0.1884488604
C        2.7901745787   -0.5623846976    0.0820965010
C        3.2305269509   -0.4288518080    1.3862926702
C        2.4641048964   -0.9357900897    2.4281021601
C        1.2519024981   -1.5630556923    2.1607357451
C        0.8241245299   -1.6959454479    0.8524389376
H       -0.1169217843   -2.1844858244    0.6470208634
H        0.6502829026   -1.9323047818    2.9785269748
O        2.8946752206   -0.7162165503    3.7177756656
C        3.1518984002   -1.7652357888    4.5559138415
C        3.5669031188   -1.4240805930    5.8422825146
C        3.8441622618   -2.4118050186    6.7650448673
C        3.7070451781   -3.7478508893    6.4230751354
C        3.2962507614   -4.0849009289    5.1463345140
C        3.0126030980   -3.1043669211    4.2114142980
H        2.7110069212   -3.3826364229    3.2123913345
H        3.1908016713   -5.1231650344    4.8676934947
H        3.9212545119   -4.5195029954    7.1466915838
H        4.1668674862   -2.1372818899    7.7583516558
H        3.6654995063   -0.3791747224    6.0919856788
H        4.1615224869    0.0671992042    1.6140490312
H        3.3884754477   -0.1687551763   -0.7260901757
23   
torsion grid (15,)
H        1.0789341811   -1.2437213065   -1.1452425917
C        1.5023309147   -1.1598758631   -0.1557973984
C        2.7078247019   -0.5049271945    0.0312172736
C        3.2563024460   -0.4013232778    1.2961361725
C        2.5939213472   -0.9556819368    2.3853775747
C        1.3732763438   -1.5976579636    2.2022785449
C        0.8370459078   -1.7001934627    0.9320318065
H       -0.1102047922   -2.2003270543    0.7939514415
H        0.8482436411   -2.0024920369    3.0553280829
O        3.1397387665   -0.7581421930    3.6303591176
C        3.2579141447   -1.7907096323    4.5190969851
C        3.5461285474   -1.4347110782    5.8351022220
C        3.7089063701   -2.4116720113    6.7965849162
C        3.5823463163   -3.7504098688    6.4621237986
C        3.3032092466   -4.1029620484    5.1538456614
C        3.1386959461   -3.1337074978    4.1800024554
H        2.9419808199   -3.4211808604    3.1575592272
H        3.2123889479   -5.1441521941    4.8811579156
H        3.7050812535   -4.5132718691    7.2157583483
H        3.9321219422   -2.1261396188    7.8138318650
H        3.6404032004   -0.3877938306    6.0779278024
H        4.1937549197    0.1074942343    1.4592325606
H        3.2272506690   -0.0747741292   -0.8121313223
23   
torsion grid (30,)
H        0.9224207545   -1.1676674054   -1.0650703412
C        1.4221487524   -1.1128895112   -0.1098101986
C        2.6366277075   -0.4576113330    0.0059638920
C        3.2811822726   -0.3920920788    1.2267801160
C        2.7073001223   -0.9857659835    2.3463249061
C        1.4786898741   -1.6291677876    2.2367491883
C        0.8467753591   -1.6919517602    1.0085484516
H       -0.1066597562   -2.1929580930    0.9286010617
H        1.0215083546   -2.0673147064    3.1122277846
O        3.3584945345   -0.8260826085    3.5422037414
C        3.3524377323   -1.8249839196    4.4789341383
C        3.5050795511   -1.4378755965    5.8072880099
C        3.5661013147   -2.3941292829    6.8022887436
C        3.4733917808   -3.7395327330    6.4859618168
C        3.3326970428   -4.1230840797    5.1634325462
C        3.2743884496   -3.1758962533    4.1572937673
H        3.1821699814   -3.4804560714    3.1248081600
H        3.2723393841   -5.1705542476    4.9070886621
H        3.5159645345   -4.4852223561    7.2652308130
H        3.6825374521   -2.0863084421    7.8307802833
H        3.5771197812   -0.3859905719    6.0360366431
H        4.2266957940    0.1164478093    1.3342303648
H        3.0881850076    0.0027543186   -0.8601600911
23   
torsion grid (45,)
H        0.7766579585   -1.0568322410   -0.9703566779
C        1.3452442568   -1.0453546241   -0.0528973562
C        2.5713829669   -0.4030476789    0.0010936581
C        3.3033545369   -0.3923854030    1.1724866509
C        2.8070508091   -1.0280437844    2.3071812783
C        1.5696880374   -1.6611887727    2.2600924240
C        0.8493648831   -1.6679211198    1.0794356989
H       -0.1110084422   -2.1611617156    1.0493408035
H        1.1727651506   -2.1362582170    3.1456853571
O        3.5583426584   -0.9293428099    3.4474028844
C        3.4424678578   -1.8790251733    4.4317574559
C        3.4567626391   -1.4419477746    5.7515889911
C        3.4247771782   -2.3633172736    6.7817003628
C        3.3785137122   -3.7194160414    6.5054000689
C        3.3772637872   -4.1526985080    5.1900734995
C        3.4150832974   -3.2413259440    4.1512218819
H        3.4253875096   -3.5764359297    3.1239723844
H        3.3542494084   -5.2094100377    4.9681870474
H        3.3490075634   -4.4367119151    7.3115658966
H        3.4326521171   -2.0191600382    7.8052071688
H        3.4962493645   -0.3820360472    5.9496699951
H        4.2591828741    0.1044688424    1.2319044053
H        2.9631556573    0.0902195130   -0.8759814194
23   
torsion grid (60,)
H        0.6411519609   -0.9138233642   -0.8614561759
C        1.2709020913   -0.9587767400    0.0140067511
C        2.5104141136   -0.3390483765    0.0144924830
C        3.3201332009   -0.3988453867    1.1310352006
C        2.8906797294   -1.0825175385    2.2660522535
C        1.6436331236   -1.6966363689    2.2715248545
C        0.8434833643   -1.6319494486    1.1445764704
H       -0.1244392697   -2.1111581416    1.1565972970
H        1.2998852777   -2.2142597863    3.1555043521
O        3.7317522697   -1.0656086097    3.3441532768
C        3.5284966380   -1.9534940597    4.3764088553
C        3.3978564589   -1.4498320627    5.6644290802
C        3.2847052465   -2.3205570016    6.7331640116
C        3.3023730102   -3.6890781929    6.5243038088
C        3.4441956737   -4.1885677627    5.2401885495
C        3.5644714896   -3.3276900911    4.1652953947
H        3.6804349400   -3.7080733853    3.1606264842
H        3.4692200273   -5.2552854346    5.0735189928
H        3.2105362998   -4.3658703503    7.3603534931
H        3.1800776411   -1.9267716324    7.7331898860
H        3.3896005450   -0.3806769219    5.8108156648
H        4.2875958205    0.0781360730    1.1491275337
H        2.8504361292    0.1920518892   -0.8621760583
23   
torsion grid (75,)
H        0.5195074312   -0.7402930939   -0.7338276656
C        1.2024234832   -0.8521957698    0.0944985381
C        2.4634458779   -0.2795859524    0.0405621894
C        3.3405247145   -0.4226536372    1.0965383203
C        2.9585854615   -1.1442248382    2.2253720320
C        1.6927449620   -1.7153254592    2.2844330543
C        0.8241608518   -1.5656494835    1.2174654583
H       -0.1580371410   -2.0118984207    1.2707467960
H        1.3889444000   -2.2681288660    3.1618111353
O        3.8757342050   -1.2252723265    3.2353812281
C        3.6111686211   -2.0453038132    4.3147343108
C        3.3239290609   -1.4717799812    5.5459979499
C        3.1408517403   -2.2814297366    6.6529544552
C        3.2427687833   -3.6572093310    6.5359620676
C        3.5353763443   -4.2261236173    5.3074526089
C        3.7244232215   -3.4253816130    4.1960240639
H        3.9537916530   -3.8562642868    3.2324539737
H        3.6216181654   -5.2985107637    5.2137948025
H        3.0971694571   -4.2859955701    7.4014605529
H        2.9160343410   -1.8345443985    7.6099622097
H        3.2500438079   -0.3976144537    5.6214919732
H        4.3257522498    0.0160695351    1.0717561637
H        2.7666340902    0.2809831836   -0.8312937588
23   
torsion grid (90,)
H        0.4212653683   -0.5477147068   -0.5981569033
C        1.1450157114   -0.7326574890    0.1809544077
C        2.4309479702   -0.2268712685    0.0727626421
C        3.3588542560   -0.4617928338    1.0670115613
C        3.0049533150   -1.2106859520    2.1871679187
C        1.7160614499   -1.7185488328    2.2984212168
C        0.7954329801   -1.4756276368    1.2939084079
H       -0.2042949081   -1.8737088053    1.3876916496
H        1.4366452362   -2.2990637984    3.1659707608
O        3.9782695267   -1.3977683516    3.1276553912
C        3.6785540785   -2.1466930435    4.2513027010
C        3.2331325976   -1.5125982280    5.4034764402
C        3.0002347986   -2.2560661979    6.5467021585
C        3.2069822936   -3.6253077952    6.5427202218
C        3.6510446615   -4.2545226345    5.3918111199
C        3.8872168239   -3.5196936530    4.2437777416
H        4.2329759753   -3.9959028532    3.3384987091
H        3.8139708688   -5.3220440048    5.3862492592
H        3.0225906652   -4.2020437761    7.4366418045
H        2.6545651850   -1.7631759175    7.4432051305
H        3.0761426169   -0.4444730958    5.3909521574
H        4.3639693729   -0.0760087900    0.9994682212
H        2.7130649383    0.3546369707   -0.7924602582
23   
torsion grid (105,)
H        0.3626649683   -0.3370629975   -0.4786784656
C        1.1080154991   -0.6021209397    0.2556432771
C        2.4163170103   -0.1684389976    0.1096875722
C        3.3713807305   -0.5036611695    1.0479223824
C        3.0227494485   -1.2837473147    2.1483461859
C        1.7124516057   -1.7233879586    2.2949562746
C        0.7643595157   -1.3784634024    1.3475141745
H       -0.2517400419   -1.7243456587    1.4684190097
H        1.4385114933   -2.3347424630    3.1427679769
O        4.0279663372   -1.5848024320    3.0238039565
C        3.7159687859   -2.2549633761    4.1912757657
C        3.1343305084   -1.5774813727    5.2561369001
C        2.8802776537   -2.2492893736    6.4378615119
C        3.1997558484   -3.5914563418    6.5592943198
C        3.7754797374   -4.2638158092    5.4946665819
C        4.0306558224   -3.6022743592    4.3066556525
H        4.4785374454   -4.1129109995    3.4676102442
H        4.0228150930   -5.3109675111    5.5859687622
H        2.9994835884   -4.1127038555    7.4833323553
H        2.4305451889   -1.7220982505    7.2661085970
H        2.8884852747   -0.5314228607    5.1465870345
H        4.3941668367   -0.1748808393    0.9503220311
H        2.6944174317    0.4367055891   -0.7404696410
23   
torsion grid (120,)
H        0.3359883694   -0.1199140060   -0.3761353589
C        1.0860673749   -0.4696735054    0.3167584727
C        2.4124772065   -0.1030383254    0.1531961815
C        3.3735499994   -0.5449510986    1.0401206534
C        3.0115067205   -1.3667839818    2.1050130952
C        1.6832803441   -1.7434488689    2.2665708685
C        0.7298768782   -1.2904227267    1.3718673307
H       -0.3001557535   -1.5876831617    1.5034774419
H        1.4002615123   -2.3924613322    3.0827518264
O        4.0248871332   -1.7905853656    2.9191154419
C        3.7196318496   -2.3695068053    4.1316745020
C        3.0452007189   -1.6582292728    5.1179445419
C        2.8032046349   -2.2499072530    6.3437792548
C        3.2267206701   -3.5454244221    6.5905277578
C        3.8960748882   -4.2515235419    5.6055120615
C        4.1383463126   -3.6715435848    4.3732425492
H        4.6587554155   -4.2084078487    3.5950116575
H        4.2249765724   -5.2628228301    5.7930704437
H        3.0348754495   -4.0031521976    7.5492773960
H        2.2818922802   -1.6951671318    7.1097849774
H        2.7192856061   -0.6483052027    4.9150880472
H        4.4106189979   -0.2698036586    0.9277046867
H        2.7002726009    0.5344234277   -0.6696213696
23   
torsion grid (135,)
H        1.0297917397    0.8044336320   -0.2060502154
C        1.4966960319    0.0381478870    0.3938620816
C        2.5004637768   -0.7524352689   -0.1414590745
C        3.1032871576   -1.7296529566    0.6261740634
C        2.7010783387   -1.9259127364    1.9445568646
C        1.6842758056   -1.1423624028    2.4793217181
C        1.0913808067   -0.1641833280    1.7015823351
H        0.3020296845    0.4402216742    2.1237509240
H        1.3554314012   -1.3055598764    3.4954829302
O        3.3060063750   -2.9466851242    2.6269464225
C        3.3209904533   -2.9387141053    4.0006848041
C        3.6905187246   -1.8118845667    4.7276838128
C        3.7480427737   -1.8766446629    6.1074168989
C        3.4433087473   -3.0549572012    6.7683830516
C        3.0824684726   -4.1768150618    6.0413779579
C        3.0152712848   -4.1228303770    4.6613320655
H        2.7367776490   -4.9883158146    4.0802648599
H        2.8446135746   -5.0986567969    6.5509905336
H        3.4898045552   -3.0986013620    7.8460234913
H        4.0369425970   -1.0002737058    6.6685654634
H        3.9336995347   -0.8967649118    4.2070924417
H        3.8853614282   -2.3547919790    0.2243535567
H        2.8193548692   -0.6050936489   -1.1626045277
23   
torsion grid (150,)
H        1.2213436852    0.9199589292   -0.2257958667
C        1.6009549766    0.1133676006    0.3828132648
C        2.5778763998   -0.7333404639   -0.1145665575
C        3.0703952546   -1.7624478909    0.6645728342
C        2.5839042411   -1.9530220646    1.9544509403
C        1.5904977936   -1.1141153149    2.4484475899
C        1.1084010355   -0.0842369436    1.6613557497
H        0.3373012582    0.5637555403    2.0513339786
H        1.1932407029   -1.2768849963    3.4399173776
O        3.0654807191   -3.0317684946    2.6486481109
C        3.1901635170   -2.9839587785    4.0120852973
C        3.5264682309   -1.8245333920    4.7030872942
C        3.6992248088   -1.8705891820    6.0744075293
C        3.5484825339   -3.0616027789    6.7635393253
C        3.2312227610   -4.2181708171    6.0705272898
C        3.0511983298   -4.1851528936    4.7012099328
H        2.8060437400   -5.0773479559    4.1462060945
H        3.1194883866   -5.1527120465    6.5998413890
H        3.6831635991   -3.0892528483    7.8341721515
H        3.9597292336   -0.9668903653    6.6053840990
H        3.6614941421   -0.8971002946    4.1654006621
H        3.8297572828   -2.4323882659    0.2923759059
H        2.9617631494   -0.5898989766   -1.1136819332
23   
torsion grid (165,)
H        1.4188518763    0.9985078186   -0.2515069164
C        1.7071208225    0.1640446813    0.3696690718
C        2.6651967016   -0.7334729761   -0.0709751331
C        3.0410452453   -1.7991337554    0.7252293679
C        2.4538250083   -1.9722830756    1.9737522637
C        1.4773609979   -1.0827586253    2.4104186840
C        1.1136820007   -0.0173766922    1.6075271188
H        0.3560009399    0.6713704498    1.9510260747
H        1.0026438977   -1.2358806093    3.3688297151
O        2.8075329865   -3.0883306196    2.6905507563
C        3.0571238299   -3.0120276557    4.0331679502
C        3.3624371616   -1.8326503057    4.7035111536
C        3.6588871164   -1.8692792421    6.0545275389
C        3.6664949940   -3.0689599248    6.7436505043
C        3.3868058284   -4.2461815739    6.0685278646
C        3.0875546439   -4.2232184546    4.7210080187
H        2.8700509383   -5.1305802757    4.1794203637
H        3.4028441744   -5.1891163262    6.5945797158
H        3.8970500423   -3.0881418929    7.7979218625
H        3.8925600289   -0.9481766217    6.5679817398
H        3.3821082868   -0.8939725492    4.1693832857
H        3.7843594022   -2.5086727514    0.3961793204
H        3.1260588580   -0.6020417159   -1.0386478616
23   
torsion grid (180,)
H        1.7151609112    0.9684073229   -0.3627246989
C        1.7848891123    0.1569676631    0.3459032085
C        3.0085273763   -0.4403435005    0.5981236646
C        3.1057819294   -1.4801918054    1.5045678813
C        1.9677176010   -1.9201712072    2.1722842090
C        0.7372803457   -1.3295500774    1.9119849339
C        0.6505572462   -0.2944167244    0.9990984565
H       -0.3070956783    0.1632914875    0.8004247762
H       -0.1373043261   -1.6940324071    2.4284760210
O        1.9991053431   -2.9972148859    3.0285252056
C        2.7986722833   -2.9877127000    4.1375143074
C        3.5720283378   -1.9069624640    4.5447273556
C        4.3131685490   -1.9946728283    5.7105346544
C        4.2836993334   -3.1418801369    6.4823037057
C        3.4917156150   -4.2089024220    6.0886064959
C        2.7467850457   -4.1336705204    4.9294901208
H        2.1228807291   -4.9535222899    4.6093867089
H        3.4494852396   -5.1037184882    6.6916847863
H        4.8661658124   -3.2020589914    7.3889748958
H        4.9138536391   -1.1507789515    6.0168315583
H        3.5856668495   -0.9961089901    3.9646722612
H        4.0547299738   -1.9613929862    1.6920646212
H        3.8941245133   -0.0996967905    0.0822773305
