15   

H        1.8844934285   -1.1974205783   -1.1372584610
C        1.8989337998   -1.1491131916   -0.0516463676
C        2.9606386592   -1.7132788649    0.6606501364
C        2.9827134126   -1.6488094896    2.0589105650
C        1.9377028086   -1.0273781344    2.7676381083
C        0.8787665709   -0.4514146237    2.0340831156
C        0.8609407114   -0.5150157024    0.6357976926
H        0.0425732680   -0.0641729394    0.0808480286
H        0.0688489702    0.0724051615    2.5336845526
C        1.9680883683   -0.9741836753    4.2380957310
O        2.9986688411   -1.1458666493    4.8281181973
O        0.8176975165   -0.7689074310    4.9117198680
H        0.0392111191   -0.8750488027    4.3499162352
H        3.8160684684   -2.0885457434    2.6033600804
H        3.7727416562   -2.2015679900    0.1292363316
15   

H        1.8836836888   -1.2630112150   -1.1392453311
C        1.8975224868   -1.2019016581   -0.0542863557
C        2.9496725144   -1.7733277890    0.6666858096
C        2.9716427824   -1.6911712906    2.0642107523
C        1.9362478857   -1.0429494722    2.7629976222
C        0.8870061133   -0.4610407584    2.0206384053
C        0.8685991625   -0.5432302880    0.6235234477
H        0.0576354651   -0.0865731550    0.0625006491
H        0.0863563838    0.0823147265    2.5150110383
C        1.9669687079   -0.9570535557    4.2318023284
O        2.9799005709   -1.1865343014    4.8318113293
O        0.8201727735   -0.6788308861    4.8963827097
H        0.0378198781   -0.9607343381    4.4072733019
H        3.7987929253   -2.1346293367    2.6149759444
H        3.7551816182   -2.2796946412    0.1422566582
15   

H        1.8958562948   -1.3125275155   -1.1453663420
C        1.9057472158   -1.2419913635   -0.0609621292
C        2.9499877808   -1.8156646645    0.6699221110
C        2.9671849253   -1.7205191541    2.0668768328
C        1.9351432578   -1.0554389552    2.7547950365
C        0.8935604049   -0.4730772621    2.0023511232
C        0.8794357944   -0.5687358664    0.6062297435
H        0.0740227785   -0.1107518084    0.0383714319
H        0.0955330669    0.0802567418    2.4903452318
C        1.9609905227   -0.9456727612    4.2222483695
O        2.9519553600   -1.2277853219    4.8353878664
O        0.8187513595   -0.5924102168    4.8733903761
H        0.0425735843   -1.0278828458    4.5047395272
H        3.7891213793   -2.1644755226    2.6248739451
H        3.7535378649   -2.3330208298    0.1533505758
15   

H        1.9219714543   -1.3339172879   -1.1566098581
C        1.9243961354   -1.2605760836   -0.0723825326
C        2.9607572011   -1.8366244283    0.6679759532
C        2.9681671171   -1.7376232972    2.0649099400
C        1.9345564136   -1.0648744720    2.7430507150
C        0.9004964733   -0.4818519695    1.9810002740
C        0.8957304252   -0.5817174782    0.5852595481
H        0.0953825564   -0.1228774937    0.0110260286
H        0.0999302946    0.0732018538    2.4631306965
C        1.9493342915   -0.9460609383    4.2102323805
O        2.9158055587   -1.2749738308    4.8379288803
O        0.8161862423   -0.5120029357    4.8460307092
H        0.0570692655   -1.0667189309    4.6424410287
H        3.7844011534   -2.1830029964    2.6299493634
H        3.7659045402   -2.3585300945    0.1586088819
15   

H        1.9614589109   -1.3224534273   -1.1733831053
C        1.9526688892   -1.2536332777   -0.0889315303
C        2.9803834733   -1.8339651995    0.6601908999
C        2.9726526217   -1.7413288474    2.0576743858
C        1.9329477787   -1.0694528845    2.7274530049
C        0.9072823279   -0.4834608076    1.9565352547
C        0.9172630787   -0.5772651313    0.5605015290
H        0.1222312133   -0.1165995727   -0.0195441163
H        0.0997706943    0.0659208575    2.4336874937
C        1.9291469593   -0.9584922434    4.1957048625
O        2.8728577852   -1.3252648400    4.8365564315
O        0.8133844471   -0.4410311361    4.8144917730
H        0.0849205742   -1.0676986832    4.8165559905
H        3.7819583252   -2.1906082164    2.6293905779
H        3.7902742609   -2.3546143025    0.1571936247
15   

H        2.0124560195   -1.2864761721   -1.1912261045
C        1.9887768675   -1.2287913719   -0.1063863034
C        3.0061163883   -1.8165363814    0.6511131804
C        2.9781718817   -1.7393919636    2.0493702337
C        1.9290745268   -1.0744385110    2.7116019187
C        0.9136891848   -0.4819148467    1.9320996303
C        0.9434501708   -0.5606584796    0.5354815008
H        0.1548843256   -0.0960895196   -0.0501666149
H        0.0962552784    0.0568893964    2.4044460977
C        1.8997871122   -0.9847514010    4.1816005266
O        2.8238530391   -1.3846174627    4.8327035659
O        0.8135777641   -0.3840208727    4.7813433930
H        0.1343895329   -1.0226726858    5.0130015120
H        3.7788305990   -2.1957358304    2.6274560270
H        3.8230981963   -2.3317341592    0.1541035931
15   

H        2.0645033811   -1.2497923821   -1.2060702463
C        2.0244600975   -1.2045414311   -0.1211551526
C        3.0313916730   -1.7988639722    0.6450794568
C        2.9814340118   -1.7388707848    2.0436469521
C        1.9210665930   -1.0834199310    2.6976824659
C        0.9160058601   -0.4850818302    1.9090843373
C        0.9674045195   -0.5471116248    0.5123178086
H        0.1854245196   -0.0791897319   -0.0793919212
H        0.0874398080    0.0417413927    2.3755823136
C        1.8644648008   -1.0160943889    4.1688027370
O        2.7728100942   -1.4446641856    4.8270544181
O        0.8118864082   -0.3497796604    4.7476219735
H        0.2118289264   -0.9483311713    5.2015783603
H        3.7735215386   -2.2016550255    2.6282146009
H        3.8568848594   -2.3066830345    0.1546786446
15   

H        2.1054448370   -1.2293170145   -1.2160888704
C        2.0505334349   -1.1936009553   -0.1314942160
C        3.0484446285   -1.7918570780    0.6434469872
C        2.9786910424   -1.7449532666    2.0417404352
C        1.9079277326   -1.0974848468    2.6870002419
C        0.9117380071   -0.4960076889    1.8893558080
C        0.9825095575   -0.5455223187    0.4929979687
H        0.2062806772   -0.0760476817   -0.1049745765
H        0.0733022722    0.0209132453    2.3493633010
C        1.8283881370   -1.0446122746    4.1582436765
O        2.7179718929   -1.5063816611    4.8231421996
O        0.8069430448   -0.3321011349    4.7179690519
H        0.3143682362   -0.8555188143    5.3592646619
H        3.7635686309   -2.2116284648    2.6327606961
H        3.8820054421   -2.2930873703    0.1600399073
15   

H        2.1394878804   -1.2160446966   -1.2221952603
C        2.0722201595   -1.1858863211   -0.1381438973
C        3.0670431663   -1.7782165757    0.6453542128
C        2.9811013543   -1.7386527677    2.0430447992
C        1.8969652321   -1.1044847585    2.6790749366
C        0.9035462921   -0.5098756963    1.8727669274
C        0.9906812089   -0.5516368328    0.4771412721
H        0.2160766073   -0.0875763367   -0.1271102392
H        0.0537415819   -0.0056929944    2.3261890642
C        1.7990648920   -1.0595077510    4.1496555281
O        2.6824298442   -1.5240885205    4.8235997111
O        0.7732368745   -0.3583201056    4.6950982431
H        0.4261107457   -0.8002211738    5.4800723659
H        3.7633061782   -2.2011861811    2.6407208740
H        3.9105040281   -2.2695031255    0.1690192820
15   

H        2.1597445494   -1.2033836087   -1.2262396401
C        2.0832516717   -1.1788115186   -0.1426679112
C        3.0755005202   -1.7680938184    0.6464288784
C        2.9774346463   -1.7359643387    2.0435414848
C        1.8837096995   -1.1121672008    2.6732721541
C        0.8925897487   -0.5213338161    1.8614179954
C        0.9918681204   -0.5555183573    0.4664149693
H        0.2186279501   -0.0946633334   -0.1420061632
H        0.0346040645   -0.0271811185    2.3106039031
C        1.7732870249   -1.0739648113    4.1431193128
O        2.6438235577   -1.5544947917    4.8245015410
O        0.7398915337   -0.3917709077    4.6809002893
H        0.5372040601   -0.7272520831    5.5655056809
H        3.7573401303   -2.1965318055    2.6456597093
H        3.9261314208   -2.2515447176    0.1748757638
15   

H        2.1789413533   -1.1891642039   -1.2286857919
C        2.0951945062   -1.1693606341   -0.1455580521
C        3.0879517570   -1.7519822445    0.6479100080
C        2.9803052962   -1.7262463630    2.0444749295
C        1.8762484776   -1.1158355169    2.6690326380
C        0.8843674511   -0.5322714511    1.8529575645
C        0.9934304197   -0.5596115113    0.4585595304
H        0.2193006518   -0.1046368905   -0.1531420585
H        0.0177615919   -0.0501258186    2.2987512546
C        1.7556122556   -1.0841983111    4.1380086188
O        2.6168413565   -1.5725990153    4.8267423208
O        0.6983528723   -0.4453050078    4.6712337923
H        0.6316876847   -0.6531752277    5.6154516743
H        3.7600851375   -2.1822089319    2.6502157176
H        3.9460933240   -2.2257205281    0.1801387632
15   

H        2.1947092489   -1.1718834339   -1.2287385282
C        2.1059431380   -1.1574053444   -0.1459280137
C        3.1015682609   -1.7322138416    0.6496834449
C        2.9872630415   -1.7136294949    2.0458506217
C        1.8733528627   -1.1187091642    2.6677265007
C        0.8783351919   -0.5435165320    1.8495569947
C        0.9943544981   -0.5631265683    0.4556079357
H        0.2175710568   -0.1149023711   -0.1577146115
H        0.0034069605   -0.0748170123    2.2934743541
C        1.7453914501   -1.0948628721    4.1361247707
O        2.6008503096   -1.5892390423    4.8282279659
O        0.6573532767   -0.5109993448    4.6661296362
H        0.6999540803   -0.5653297355    5.6333404788
H        3.7687563645   -2.1642672782    2.6533531482
H        3.9667852316   -2.1948488131    0.1838446045
15   

H        2.2009564627   -1.1492645689   -1.2274151470
C        2.1103656225   -1.1418636387   -0.1446825187
C        3.1111859370   -1.7098727926    0.6492511799
C        2.9943876017   -1.7007219173    2.0452877319
C        1.8725082486   -1.1226095687    2.6688164821
C        0.8719678688   -0.5547385014    1.8522412903
C        0.9908178846   -0.5643426150    0.4584082476
H        0.2096532469   -0.1221170736   -0.1536995991
H       -0.0099819636   -0.1003995077    2.2971488498
C        1.7418442730   -1.1091455964    4.1372136933
O        2.5956126918   -1.6110677238    4.8255151724
O        0.6233657383   -0.5811850372    4.6669061589
H        0.7381070498   -0.4603452269    5.6215966941
H        3.7795618309   -2.1469084937    2.6513399899
H        3.9821051237   -2.1604550692    0.1822177402
15   

H        2.2026728714   -1.1255854373   -1.2237605326
C        2.1119107051   -1.1268725917   -0.1410125397
C        3.1182193821   -1.6906740490    0.6488962506
C        3.0011153449   -1.6930461684    2.0449098180
C        1.8732827945   -1.1310611109    2.6726712350
C        0.8668781512   -0.5679283259    1.8599343406
C        0.9863088139   -0.5655922430    0.4660946396
H        0.2005512047   -0.1274227161   -0.1430493825
H       -0.0207214134   -0.1274438500    2.3074103311
C        1.7424952170   -1.1297652323    4.1413428617
O        2.5948125588   -1.6433128635    4.8216728059
O        0.5999815756   -0.6453155250    4.6728259354
H        0.7516274357   -0.3386777537    5.5778857632
H        3.7903556393   -2.1366959900    2.6475671833
H        3.9934507045   -2.1295423735    0.1787635365
15   

H        2.2024651896   -1.1019272333   -1.2185600388
C        2.1118863319   -1.1140105564   -0.1358544926
C        3.1222849990   -1.6781110054    0.6485449675
C        3.0053446610   -1.6947191349    2.0444459106
C        1.8736983330   -1.1466489609    2.6777310117
C        0.8627369587   -0.5838339300    1.8704081523
C        0.9821142343   -0.5671692115    0.4766439127
H        0.1928145472   -0.1297420468   -0.1284575768
H       -0.0290857603   -0.1557963778    2.3214026952
C        1.7438414781   -1.1595802722    4.1464666813
O        2.5896860048   -1.6921495693    4.8182448066
O        0.5891282398   -0.6919400859    4.6844710685
H        0.7563898927   -0.2017431636    5.4991409894
H        3.7975847282   -2.1390637506    2.6427031793
H        4.0004387679   -2.1065270438    0.1742145770
15   

H        2.1953528437   -1.0663805420   -1.2108987329
C        2.1066562105   -1.0918908619   -0.1282544710
C        3.1239513715   -1.6550166357    0.6478066979
C        3.0094305561   -1.6892411166    2.0435157477
C        1.8734208384   -1.1600160162    2.6850080175
C        0.8549327487   -0.5989508623    1.8860754090
C        0.9721508725   -0.5642939153    0.4923988482
H        0.1772321068   -0.1286915084   -0.1066533853
H       -0.0417741290   -0.1876325210    2.3427182667
C        1.7466703787   -1.1927006338    4.1535260743
O        2.5937320746   -1.7315294789    4.8159687824
O        0.5843146081   -0.7355471359    4.7051185344
H        0.7467312763   -0.0720023406    5.3842247046
H        3.8067842546   -2.1333051350    2.6352570340
H        4.0054236843   -2.0694188278    0.1671662606
15   

H        2.1905543316   -1.0213691390   -1.1987916443
C        2.1017227582   -1.0645334556   -0.1166929088
C        3.1207464802   -1.6369387836    0.6502417968
C        3.0057170232   -1.6948702880    2.0450529937
C        1.8682641755   -1.1791189781    2.6946364919
C        0.8474463291   -0.6093402163    1.9051267534
C        0.9649176694   -0.5516313546    0.5121743618
H        0.1680696442   -0.1106567514   -0.0803951805
H       -0.0525441073   -0.2119576997    2.3675001347
C        1.7415377547   -1.2388741136    4.1617086621
O        2.5707483659   -1.8108536126    4.8153960276
O        0.6010843426   -0.7318112742    4.7354542568
H        0.7746778590    0.0717176422    5.2340679807
H        3.8038071504   -2.1467737064    2.6299689403
H        4.0036761883   -2.0406673533    0.1631580980
15   

H        2.1933857695   -0.9585680435   -1.1807847080
C        2.1027774813   -1.0221789693   -0.0998085703
C        3.1220274402   -1.6064623924    0.6578006725
C        3.0042538116   -1.6921153197    2.0508720220
C        1.8645636622   -1.1913425572    2.7078744234
C        0.8429095175   -0.6101790500    1.9280109587
C        0.9629596978   -0.5252916069    0.5366049831
H        0.1652703106   -0.0772567228   -0.0495694643
H       -0.0614244346   -0.2288634656    2.3953416604
C        1.7335388424   -1.2860344471    4.1719997394
O        2.5470548902   -1.8862473052    4.8167177345
O        0.6300298214   -0.7166576198    4.7707461311
H        0.8013009899    0.1859379278    5.0515046476
H        3.8016456806   -2.1543800729    2.6287689013
H        4.0068290249   -1.9987508454    0.1647058671
15   

H        2.1961128573   -0.8971920205   -1.1598397430
C        2.1040480003   -0.9792914843   -0.0801951588
C        3.1227992241   -1.5758676769    0.6684099294
C        3.0027385328   -1.6868075710    2.0594092427
C        1.8620003675   -1.1980352324    2.7233557255
C        0.8401445466   -0.6051389849    1.9526577516
C        0.9623542599   -0.4955498754    0.5631024240
H        0.1643588809   -0.0402551678   -0.0171143257
H       -0.0679696182   -0.2380798889    2.4240023617
C        1.7266404034   -1.3255009760    4.1840133022
O        2.5229630600   -1.9593881536    4.8163580767
O        0.6772146513   -0.6878127990    4.8066287795
H        0.8182109921    0.2612737249    4.8588856084
H        3.7989490272   -2.1598195462    2.6303694914
H        4.0085897609   -1.9589630663    0.1697939707
15   

H        2.1842865297   -0.8585470066   -1.1414673987
C        2.0943913649   -0.9525168683   -0.0625687732
C        3.1143797192   -1.5582350928    0.6768469618
C        2.9970349927   -1.6853263544    2.0665803228
C        1.8585786782   -1.2025913324    2.7386676002
C        0.8345059582   -0.6014715112    1.9771906560
C        0.9539612468   -0.4762111356    0.5886200820
H        0.1545100115   -0.0157483452    0.0144365631
H       -0.0748364290   -0.2435535698    2.4530388655
C        1.7265273604   -1.3498802070    4.1973750642
O        2.5033872645   -2.0224477502    4.8141403649
O        0.7378355067   -0.6540096401    4.8415042669
H        0.8071218129    0.2927487769    4.6857321843
H        3.7938331501   -2.1659287685    2.6304993164
H        3.9988779788   -1.9363319406    0.1720616866
15   

H        2.1519665234   -0.8483847944   -1.1305805166
C        2.0684176778   -0.9471880016   -0.0515702269
C        3.0908453903   -1.5603916064    0.6780557664
C        2.9819756718   -1.6937150543    2.0677331312
C        1.8505834103   -1.2086870236    2.7499152990
C        0.8228096779   -0.6013002243    1.9982675819
C        0.9337301302   -0.4703416811    0.6093645902
H        0.1321369813   -0.0054357650    0.0417260623
H       -0.0838762897   -0.2448875281    2.4799883738
C        1.7320711998   -1.3605416134    4.2090352845
O        2.4827789562   -2.0780719343    4.8083070248
O        0.8064597221   -0.6146808271    4.8726823357
H        0.7703691066    0.2911116053    4.5467541279
H        3.7807924879   -2.1795703415    2.6243963199
H        3.9708341431   -1.9392186721    0.1658974513
15   

H        2.1034469846   -0.8647356903   -1.1265589738
C        2.0299582130   -0.9618887283   -0.0466411268
C        3.0549728341   -1.5824916211    0.6727651840
C        2.9596145304   -1.7129681965    2.0635171365
C        1.8403920589   -1.2166663022    2.7574643357
C        0.8086437241   -0.6030549904    2.0161143852
C        0.9059201183   -0.4755930939    0.6256774318
H        0.1023033486   -0.0056216981    0.0650782808
H       -0.0911775542   -0.2394275926    2.5047617703
C        1.7446223341   -1.3600076061    4.2189671693
O        2.4629092781   -2.1234719283    4.8019672369
O        0.8796570551   -0.5710231832    4.8998162704
H        0.7137027303    0.2641688277    4.4462888539
H        3.7609862027   -2.2031440043    2.6127946795
H        3.9269283799   -1.9684381660    0.1521722211
15   

H        2.0483851664   -0.9004157494   -1.1277959562
C        1.9860208684   -0.9912977629   -0.0466174724
C        3.0102286819   -1.6234168762    0.6635165186
C        2.9298564608   -1.7446072885    2.0558631419
C        1.8278822263   -1.2264086121    2.7613003126
C        0.7957509910   -0.6018689543    2.0292906581
C        0.8776568448   -0.4847310743    0.6367623460
H        0.0748420466   -0.0057041216    0.0827089294
H       -0.0926420895   -0.2202685231    2.5243604927
C        1.7595309640   -1.3521489483    4.2260582469
O        2.4386431647   -2.1607922615    4.7957947108
O        0.9540667574   -0.5217591351    4.9195930511
H        0.6435555903    0.2202057428    4.3848023805
H        3.7315619036   -2.2417000751    2.5984873523
H        3.8706091294   -2.0242145972    0.1348910874
15   

H        1.9917977427   -0.9392949753   -1.1330649251
C        1.9428090534   -1.0198699432   -0.0503764221
C        2.9616872092   -1.6704030910    0.6501079330
C        2.8991547513   -1.7770409519    2.0443380302
C        1.8214304111   -1.2257578701    2.7626953334
C        0.7944334111   -0.5812705761    2.0399380321
C        0.8580598878   -0.4798275312    0.6450006580
H        0.0601728148    0.0153259869    0.0980749592
H       -0.0754953687   -0.1674587457    2.5406468552
C        1.7842871622   -1.3319355372    4.2312349782
O        2.4463606446   -2.1623385220    4.7902618717
O        1.0071228433   -0.4880721497    4.9361936299
H        0.5258446077    0.1308077647    4.3713537733
H        3.6984624008   -2.2865953994    2.5789397665
H        3.8049752364   -2.0954977745    0.1129563289
