15   

H        1.8844934356   -1.1974214857   -1.1372584481
C        1.8989337735   -1.1491139962   -0.0516463563
C        2.9606386291   -1.7132795618    0.6606502413
C        2.9827133616   -1.6488100030    2.0589106669
C        1.9377027355   -1.0273785744    2.7676381174
C        0.8787664775   -0.4514152225    2.0340830261
C        0.8609406455   -0.5150164730    0.6357976101
H        0.0425732057   -0.0641737836    0.0808478803
H        0.0688488640    0.0724046268    2.5336843744
C        1.9680883683   -0.9741836753    4.2380957310
O        2.9986688411   -1.1458666493    4.8281181973
O        0.8176975165   -0.7689074310    4.9117198680
H        0.0392111191   -0.8750488027    4.3499162352
H        3.8160684424   -2.0885461276    2.6033602479
H        3.7727416506   -2.2015687211    0.1292365061
15   

H        1.8836831346   -1.2630127724   -1.1392452298
C        1.8975220247   -1.2019029665   -0.0542862703
C        2.9496721246   -1.7733289134    0.6666859414
C        2.9716425197   -1.6911720888    2.0642108663
C        1.9362476845   -1.0429500999    2.7629976647
C        0.8870058515   -0.4610415564    2.0206383933
C        0.8685987598   -0.5432314363    0.6235234625
H        0.0576350133   -0.0865744297    0.0625006295
H        0.0863562002    0.0823141123    2.5150109515
C        1.9669687079   -0.9570535557    4.2318023284
O        2.9799005709   -1.1865343014    4.8318113293
O        0.8201727735   -0.6788308861    4.8963827097
H        0.0378198781   -0.9607343381    4.4072733019
H        3.7987927354   -2.1346299552    2.6149760940
H        3.7551812007   -2.2796958528    0.1422568325
15   

H        1.8958562033   -1.3125285245   -1.1453662614
C        1.9057471075   -1.2419922377   -0.0609620557
C        2.9499876264   -1.8156655050    0.6699222792
C        2.9671847703   -1.7205197873    2.0668769868
C        1.9351431416   -1.0554394168    2.7547950800
C        0.8935603112   -0.4730777981    2.0023510778
C        0.8794357113   -0.5687365960    0.6062297127
H        0.0740227299   -0.1107525621    0.0383713348
H        0.0955330060    0.0802563349    2.4903450965
C        1.9609905227   -0.9456727612    4.2222483695
O        2.9519553600   -1.2277853219    4.8353878664
O        0.8187513595   -0.5924102168    4.8733903761
H        0.0425735843   -1.0278828458    4.5047395272
H        3.7891212213   -2.1644760803    2.6248741687
H        3.7535376953   -2.3330217775    0.1533508291
15   

H        1.9219714073   -1.3339166865   -1.1566099099
C        1.9243961153   -1.2605755841   -0.0723825774
C        2.9607572575   -1.8366239028    0.6679758248
C        2.9681672045   -1.7376229012    2.0649098213
C        1.9345564548   -1.0648742444    2.7430506915
C        0.9004964468   -0.4818517550    1.9810003284
C        0.8957303614   -0.5817171356    0.5852595944
H        0.0953824262   -0.1228771782    0.0110261440
H        0.0999302293    0.0732019442    2.4631308300
C        1.9493342915   -0.9460609383    4.2102323805
O        2.9158055587   -1.2749738308    4.8379288803
O        0.8161862423   -0.5120029357    4.8460307092
H        0.0570692655   -1.0667189309    4.6424410287
H        3.7844012958   -2.1830025901    2.6299491758
H        3.7659046199   -2.3585294583    0.1586086787
15   

H        1.9614596244   -1.3224513014   -1.1733832360
C        1.9526695402   -1.2536314290   -0.0889316447
C        2.9803840974   -1.8339635215    0.6601906917
C        2.9726531205   -1.7413276008    2.0576742027
C        1.9329481763   -1.0694519180    2.7274529393
C        0.9072827902   -0.4834595973    1.9565352890
C        0.9172636668   -0.5772634912    0.5605015351
H        0.1222318237   -0.1165978073   -0.0195440395
H        0.0997710577    0.0659218319    2.4336876349
C        1.9291469593   -0.9584922434    4.1957048625
O        2.8728577852   -1.3252648400    4.8365564315
O        0.8133844471   -0.4410311361    4.8144917730
H        0.0849205742   -1.0676986832    4.8165559905
H        3.7819587448   -2.1906071841    2.6293903389
H        3.7902749325   -2.3546124742    0.1571933382
15   

H        2.0124574949   -1.2864733547   -1.1912262362
C        1.9887781341   -1.2287889584   -0.1063864179
C        3.0061175147   -1.8165342433    0.6511130366
C        2.9781726957   -1.7393904200    2.0493701141
C        1.9290751672   -1.0744372971    2.7116018568
C        0.9136899843   -0.4819133184    1.9320996039
C        0.9434512858   -0.5606563554    0.5354814453
H        0.1548855251   -0.0960872250   -0.0501666459
H        0.0962558823    0.0568905775    2.4044461314
C        1.8997871122   -0.9847514010    4.1816005266
O        2.8238530391   -1.3846174627    4.8327035659
O        0.8135777641   -0.3840208727    4.7813433930
H        0.1343895329   -1.0226726858    5.0130015120
H        3.7788312348   -2.1957346167    2.6274558926
H        3.8230994212   -2.3317318367    0.1541034182
15   

H        2.0645041011   -1.2497906615   -1.2060703030
C        2.0244607475   -1.2045399353   -0.1211552028
C        3.0313922688   -1.7988626472    0.6450793450
C        2.9814344826   -1.7388698192    2.0436468533
C        1.9210669796   -1.0834191776    2.6976824402
C        0.9160063273   -0.4850808634    1.9090843671
C        0.9674051181   -0.5471102825    0.5123178284
H        0.1854251455   -0.0791882723   -0.0793918450
H        0.0874401729    0.0417421506    2.3755823951
C        1.8644648008   -1.0160943889    4.1688027370
O        2.7728100942   -1.4446641856    4.8270544181
O        0.8118864082   -0.3497796604    4.7476219735
H        0.2118289264   -0.9483311713    5.2015783603
H        3.7735219220   -2.2016542602    2.6282144585
H        3.8568854816   -2.3066816116    0.1546784760
15   

H        2.1054447840   -1.2293173194   -1.2160888626
C        2.0505333917   -1.1936011723   -0.1314942092
C        3.0484446011   -1.7918572252    0.6434470294
C        2.9786910310   -1.7449533344    2.0417404732
C        1.9079277153   -1.0974848942    2.6870002457
C        0.9117379896   -0.4960077660    1.8893557829
C        0.9825095206   -0.5455224910    0.4929979420
H        0.2062806361   -0.0760479000   -0.1049746364
H        0.0733022659    0.0209132130    2.3493632494
C        1.8283881370   -1.0446122746    4.1582436765
O        2.7179718929   -1.5063816611    4.8231421996
O        0.8069430448   -0.3321011349    4.7179690519
H        0.3143682362   -0.8555188143    5.3592646619
H        3.7635686298   -2.2116284895    2.6327607599
H        3.8820054160   -2.2930875399    0.1600399793
15   

H        2.1394869430   -1.2160458807   -1.2221952970
C        2.0722193773   -1.1858873229   -0.1381439280
C        3.0670424450   -1.7782175267    0.6453541428
C        2.9811008469   -1.7386534680    2.0430447380
C        1.8969648766   -1.1044852516    2.6790749244
C        0.9035458685   -0.5098762427    1.8727669560
C        0.9906805766   -0.5516376278    0.4771412922
H        0.2160759467   -0.0875771374   -0.1271101877
H        0.0537412974   -0.0056933373    2.3261891306
C        1.7990648920   -1.0595077510    4.1496555281
O        2.6824298442   -1.5240885205    4.8235997111
O        0.7732368745   -0.3583201056    4.6950982431
H        0.4261107457   -0.8002211738    5.4800723659
H        3.7633057494   -2.2011867977    2.6407207740
H        3.9105032085   -2.2695042045    0.1690191705
15   

H        2.1597439266   -1.2033846821   -1.2262396444
C        2.0832511164   -1.1788124743   -0.1426679146
C        3.0755000257   -1.7680946674    0.6464288787
C        2.9774342613   -1.7359649844    2.0435414867
C        1.8837093770   -1.1121677358    2.6732721497
C        0.8925893407   -0.5213345042    1.8614179896
C        0.9918675982   -0.5555192514    0.4664149619
H        0.2186273818   -0.0946643073   -0.1420061721
H        0.0346037147   -0.0271817084    2.3106038993
C        1.7732870249   -1.0739648113    4.1431193128
O        2.6438235577   -1.5544947917    4.8245015410
O        0.7398915337   -0.3917709077    4.6809002893
H        0.5372040601   -0.7272520831    5.5655056809
H        3.7573398210   -2.1965323137    2.6456597181
H        3.9261309060   -2.2515456048    0.1748757693
15   

H        2.1789410592   -1.1891652194   -1.2286857945
C        2.0951942284   -1.1693614991   -0.1455580566
C        3.0879515790   -1.7519828502    0.6479100685
C        2.9803051565   -1.7262467659    2.0444749859
C        1.8762482930   -1.1158359328    2.6690326361
C        0.8843671508   -0.5322721464    1.8529575092
C        0.9934300701   -0.5596124407    0.4585594725
H        0.2193002182   -0.1046380308   -0.1531421639
H        0.0177612638   -0.0501265269    2.2987511611
C        1.7556122556   -1.0841983111    4.1380086188
O        2.6168413565   -1.5725990153    4.8267423208
O        0.6983528723   -0.4453050078    4.6712337923
H        0.6316876847   -0.6531752277    5.6154516743
H        3.7600850853   -2.1822091261    2.6502158208
H        3.9460932086   -2.2257210764    0.1801388763
15   

H        2.1947093296   -1.1718835978   -1.2287385149
C        2.1059432041   -1.1574054720   -0.1459280026
C        3.1015682777   -1.7322140109    0.6496834860
C        2.9872630286   -1.7136296171    2.0458506585
C        1.8733528770   -1.1187091995    2.6677265027
C        0.8783352561   -0.5435165274    1.8495569679
C        0.9943545910   -0.5631266075    0.4556079097
H        0.2175711951   -0.1149023782   -0.1577146706
H        0.0034070483   -0.0748169470    2.2934743083
C        1.7453914501   -1.0948628721    4.1361247707
O        2.6008503096   -1.5892390423    4.8282279659
O        0.6573532767   -0.5109993448    4.6661296362
H        0.6999540803   -0.5653297355    5.6333404788
H        3.7687563054   -2.1642674365    2.6533532165
H        3.9667852304   -2.1948490517    0.1838446788
15   

H        2.2009570015   -1.1492636046   -1.2274151125
C        2.1103660785   -1.1418628149   -0.1446824891
C        3.1111863388   -1.7098720587    0.6492512126
C        2.9943878812   -1.7007213969    2.0452877551
C        1.8725084578   -1.1226091718    2.6688164960
C        0.8719681396   -0.5547379954    1.8522413042
C        0.9908182800   -0.5643418968    0.4584082680
H        0.2096536792   -0.1221162975   -0.1536995837
H       -0.0099817586   -0.1003991271    2.2971488632
C        1.7418442730   -1.1091455964    4.1372136933
O        2.5956126918   -1.6110677238    4.8255151724
O        0.6233657383   -0.5811850372    4.6669061589
H        0.7381070498   -0.4603452269    5.6215966941
H        3.7795620521   -2.1469080772    2.6513400113
H        3.9821055718   -2.1604542573    0.1822177837
15   

H        2.2026735589   -1.1255842225   -1.2237604619
C        2.1119113112   -1.1268715101   -0.1410124738
C        3.1182198929   -1.6906731334    0.6488963213
C        3.0011157099   -1.6930454810    2.0449098746
C        1.8732831063   -1.1310605093    2.6726712707
C        0.8668785815   -0.5679275153    1.8599343813
C        0.9863093920   -0.5655912012    0.4660946933
H        0.2005518428   -0.1274215705   -0.1430493295
H       -0.0207210371   -0.1274431343    2.3074103598
C        1.7424952170   -1.1297652323    4.1413428617
O        2.5948125588   -1.6433128635    4.8216728059
O        0.5999815756   -0.6453155250    4.6728259354
H        0.7516274357   -0.3386777537    5.5778857632
H        3.7903558896   -2.1366954950    2.6475672483
H        3.9934512279   -2.1295414596    0.1787636319
15   

H        2.2024655789   -1.1019263339   -1.2185599769
C        2.1118866826   -1.1140097701   -0.1358544356
C        3.1222854236   -1.6781100989    0.6485450173
C        3.0053450178   -1.6947184010    2.0444459513
C        1.8736985460   -1.1466485165    2.6777310438
C        0.8627371118   -0.5838335847    1.8704081958
C        0.9821144483   -0.5671687063    0.4766439668
H        0.1928146855   -0.1297416682   -0.1284575149
H       -0.0290857341   -0.1557962981    2.3214027386
C        1.7438414781   -1.1595802722    4.1464666813
O        2.5896860048   -1.6921495693    4.8182448066
O        0.5891282398   -0.6919400859    4.6844710685
H        0.7563898927   -0.2017431636    5.4991409894
H        3.7975851168   -2.1390629719    2.6427032134
H        4.0004392887   -2.1065259391    0.1742146271
15   

H        2.1953527586   -1.0663805899   -1.2108987474
C        2.1066561547   -1.0918908785   -0.1282544832
C        3.1239513287   -1.6550166447    0.6478066738
C        3.0094305415   -1.6892411102    2.0435157277
C        1.8734208391   -1.1600159953    2.6850080141
C        0.8549327398   -0.5989508436    1.8860754157
C        0.9721508345   -0.5642939146    0.4923988535
H        0.1772320533   -0.1286915171   -0.1066533658
H       -0.0417741345   -0.1876325013    2.3427182777
C        1.7466703787   -1.1927006338    4.1535260743
O        2.5937320746   -1.7315294789    4.8159687824
O        0.5843146081   -0.7355471359    4.7051185344
H        0.7467312763   -0.0720023406    5.3842247046
H        3.8067842355   -2.1333051468    2.6352570062
H        4.0054236227   -2.0694188593    0.1671662196
15   

H        2.1905535805   -1.0213702831   -1.1987917554
C        2.1017220923   -1.0645345023   -0.1166930095
C        3.1207459005   -1.6369397185    0.6502416638
C        3.0057165972   -1.6948710336    2.0450528832
C        1.8682638223   -1.1791196240    2.6946364330
C        0.8474458647   -0.6093410275    1.9051267182
C        0.9649170504   -0.5516323589    0.5121743085
H        0.1680689653   -0.1106578175   -0.0803952006
H       -0.0525444976   -0.2119583979    2.3675001440
C        1.7415377547   -1.2388741136    4.1617086621
O        2.5707483659   -1.8108536126    4.8153960276
O        0.6010843426   -0.7318112742    4.7354542568
H        0.7746778590    0.0717176422    5.2340679807
H        3.8038068298   -2.1467742910    2.6299688109
H        4.0036755791   -2.0406682966    0.1631579182
15   

H        2.1933842603   -0.9585702330   -1.1807849747
C        2.1027762027   -1.0221808798   -0.0998088012
C        3.1220262798   -1.6064641749    0.6578003844
C        3.0042529554   -1.6921166852    2.0508717837
C        1.8645630128   -1.1913436013    2.7078743002
C        0.8429087363   -0.6101802343    1.9280108967
C        0.9629586069   -0.5252932334    0.5366048690
H        0.1652691499   -0.0772584003   -0.0495695218
H       -0.0614250111   -0.2288642935    2.3953417071
C        1.7335388424   -1.2860344471    4.1719997394
O        2.5470548902   -1.8862473052    4.8167177345
O        0.6300298214   -0.7166576198    4.7707461311
H        0.8013009899    0.1859379278    5.0515046476
H        3.8016449665   -2.1543812343    2.6287686308
H        4.0068277523   -1.9987527826    0.1647054995
15   

H        2.1961113736   -0.8971938971   -1.1598400257
C        2.1040467431   -0.9792931216   -0.0801954051
C        3.1227980599   -1.5758692795    0.6684095843
C        3.0027376906   -1.6868088022    2.0594089526
C        1.8619997633   -1.1980361079    2.7233555916
C        0.8401438227   -0.6051399477    1.9526577108
C        0.9623532190   -0.4955512088    0.5631023272
H        0.1643577786   -0.0402565031   -0.0171143404
H       -0.0679701472   -0.2380805347    2.4240024484
C        1.7266404034   -1.3255009760    4.1840133022
O        2.5229630600   -1.9593881536    4.8163580767
O        0.6772146513   -0.6878127990    4.8066287795
H        0.8182109921    0.2612737249    4.8588856084
H        3.7989483065   -2.1598206603    2.6303691287
H        4.0085884483   -1.9589648665    0.1697935149
15   

H        2.1842859084   -0.8585476090   -1.1414675062
C        2.0943908788   -0.9525173382   -0.0625688582
C        3.1143793652   -1.5582353845    0.6768468422
C        2.9970347927   -1.6853265075    2.0665802294
C        1.8585785082   -1.2025915063    2.7386675676
C        0.8345056722   -0.6014718306    1.9771906632
C        0.9539607966   -0.4762116108    0.5886200622
H        0.1545094639   -0.0157489427    0.0144365781
H       -0.0748366785   -0.2435538799    2.4530389344
C        1.7265273604   -1.3498802070    4.1973750642
O        2.5033872645   -2.0224477502    4.8141403649
O        0.7378355067   -0.6540096401    4.8415042669
H        0.8071218129    0.2927487769    4.6857321843
H        3.7938330425   -2.1659287965    2.6304991996
H        3.9988776042   -1.9363322108    0.1720615132
15   

H        2.1519672657   -0.8483838798   -1.1305803732
C        2.0684183054   -0.9471872200   -0.0515701054
C        3.0908459730   -1.5603908418    0.6780559334
C        2.9819760941   -1.6937144893    2.0677332666
C        1.8505837121   -1.2086866383    2.7499153611
C        0.8228100330   -0.6012998044    1.9982675937
C        0.9337306448   -0.4703410693    0.6093646339
H        0.1321375270   -0.0054351558    0.0417260600
H       -0.0838760367   -0.2448872654    2.4799883111
C        1.7320711998   -1.3605416134    4.2090352845
O        2.4827789562   -2.0780719343    4.8083070248
O        0.8064597221   -0.6146808271    4.8726823357
H        0.7703691066    0.2911116053    4.5467541279
H        3.7807928589   -2.1795698329    2.6243964757
H        3.9708348047   -1.9392177936    0.1658976701
15   

H        2.1034481790   -0.8647346690   -1.1265588017
C        2.0299592280   -0.9618878177   -0.0466409771
C        3.0549736954   -1.5824908520    0.6727654340
C        2.9596151307   -1.7129676279    2.0635173521
C        1.8403925457   -1.2166658008    2.7574644153
C        0.8086443922   -0.6030543015    2.0161143644
C        0.9059210484   -0.4755922014    0.6256774492
H        0.1023044036   -0.0056206928    0.0650782118
H       -0.0911769789   -0.2394269682    2.5047616263
C        1.7446223341   -1.3600076061    4.2189671693
O        2.4629092781   -2.1234719283    4.8019672369
O        0.8796570551   -0.5710231832    4.8998162704
H        0.7137027303    0.2641688277    4.4462888539
H        3.7609866490   -2.2031436050    2.6127949672
H        3.9269293079   -1.9684373877    0.1521725758
15   

H        2.0483858315   -0.9004149626   -1.1277958537
C        1.9860214417   -0.9912970897   -0.0466173853
C        3.0102291177   -1.6234164121    0.6635166183
C        2.9298567614   -1.7446069907    2.0558632212
C        1.8278825169   -1.2264082873    2.7613003525
C        0.7957514259   -0.6018684111    2.0292906759
C        0.8776574260   -0.4847303406    0.6367623934
H        0.0748427354   -0.0057032096    0.0827089739
H       -0.0926416819   -0.2202679790    2.5243604574
C        1.7595309640   -1.3521489483    4.2260582469
O        2.4386431647   -2.1607922615    4.7957947108
O        0.9540667574   -0.5217591351    4.9195930511
H        0.6435555903    0.2202057428    4.3848023805
H        3.7315620830   -2.2416999630    2.5984874372
H        3.8706095584   -2.0242141773    0.1348912094
15   

H        1.9917975290   -0.9392949527   -1.1330649449
C        1.9428088971   -1.0198699148   -0.0503764395
C        2.9616869642   -1.6704032743    0.6501078490
C        2.8991545667   -1.7770411440    2.0443379513
C        1.8214303716   -1.2257578612    2.7626953250
C        0.7944334677   -0.5812703368    2.0399380827
C        0.8580598876   -0.4798272815    0.6450007082
H        0.0601728930    0.0153264170    0.0980750580
H       -0.0754951997   -0.1674583148    2.5406469424
C        1.7842871622   -1.3319355372    4.2312349782
O        2.4463606446   -2.1623385220    4.7902618717
O        1.0071228433   -0.4880721497    4.9361936299
H        0.5258446077    0.1308077647    4.3713537733
H        3.6984621504   -2.2865957597    2.5789396277
H        3.8049748718   -2.0954981176    0.1129561829
