15   

H        1.8844832135   -1.1974179268   -1.1372586854
C        1.8989254276   -1.1491131129   -0.0516464986
C        2.9606296108   -1.7132838098    0.6606469346
C        2.9827069276   -1.6488175190    2.0589074238
C        1.9376997779   -1.0273839750    2.7676383688
C        0.8787639734   -0.4514158090    2.0340863705
C        0.8609354895   -0.5150139509    0.6358007869
H        0.0425685459   -0.0641674526    0.0808534319
H        0.0688488305    0.0724055137    2.5336900945
C        1.9680897212   -0.9741908872    4.2380961931
O        2.9986689886   -1.1458832446    4.8281131912
O        0.8177008376   -0.7689023661    4.9117254249
H        0.0392105000   -0.8750360873    4.3499263529
H        3.8160617702   -2.0885574659    2.6033542802
H        3.7727302514   -2.2015742574    0.1292307378
15   

H        1.8836698260   -1.2630096005   -1.1392461116
C        1.8975108267   -1.2019031402   -0.0542869897
C        2.9496592503   -1.7733365544    0.6666816025
C        2.9716325236   -1.6911839215    2.0642066674
C        1.9362426350   -1.0429581508    2.7629975966
C        0.8870022763   -0.4610423723    2.0206417940
C        0.8685921135   -0.5432284845    0.6235266126
H        0.0576296394   -0.0865659186    0.0625064797
H        0.0863562020    0.0823161607    2.5150168643
C        1.9669692172   -0.9570638609    4.2318026208
O        2.9798986341   -1.1865614993    4.8318058916
O        0.8201798788   -0.6788194542    4.8963881059
H        0.0378185925   -0.9607088413    4.4072844056
H        3.7987818544   -2.1346474191    2.6149686925
H        3.7551649988   -2.2797058458    0.1422496427
15   

H        1.8958425263   -1.3125265825   -1.1453662968
C        1.9057355477   -1.2419934342   -0.0609619050
C        2.9499741493   -1.8156743940    0.6699189952
C        2.9671741970   -1.7205325810    2.0668738804
C        1.9351378061   -1.0554478660    2.7547959287
C        0.8935567266   -0.4730787219    2.0023552023
C        0.8794289778   -0.5687341177    0.6062335705
H        0.0740174759   -0.1107443262    0.0383777487
H        0.0955333553    0.0802588726    2.4903516107
C        1.9609908645   -0.9456829309    4.2222495775
O        2.9519525252   -1.2278115673    4.8353835352
O        0.8187592339   -0.5923984266    4.8733959186
H        0.0425716754   -1.0278574338    4.5047499681
H        3.7891095845   -2.1644946624    2.6248680216
H        3.7535206905   -2.3330334070    0.1533447900
15   

H        1.9219776842   -1.3339256722   -1.1566096010
C        1.9244012053   -1.2605860559   -0.0723821639
C        2.9607569934   -1.8366427002    0.6679772638
C        2.9681653510   -1.7376436452    2.0649114502
C        1.9345587282   -1.0648878571    2.7430515157
C        0.9005041329   -0.4818570101    1.9809999352
C        0.8957392772   -0.5817211061    0.5852591498
H        0.0953954189   -0.1228749007    0.0110249996
H        0.0999410444    0.0732023026    2.4631290813
C        1.9493363838   -0.9460740059    4.2102333606
O        2.9157964688   -1.2750075839    4.8379326195
O        0.8161977537   -0.5119863117    4.8460295134
H        0.0570666120   -1.0666835643    4.6424416260
H        3.7843955012   -2.1830295986    2.6299515362
H        3.7659015965   -2.3585530806    0.1586107209
15   

H        1.9614529799   -1.3224591455   -1.1733823763
C        1.9526635002   -1.2536422800   -0.0889305895
C        2.9803727232   -1.8339857773    0.6601901300
C        2.9726426459   -1.7413536524    2.0576738991
C        1.9329445166   -1.0694693254    2.7274548534
C        0.9072844056   -0.4834656822    1.9565384596
C        0.9172639054   -0.5772666850    0.5605044959
H        0.1222361161   -0.1165924094   -0.0195398177
H        0.0997777831    0.0659226532    2.4336913619
C        1.9291472176   -0.9585095122    4.1957072780
O        2.8728462897   -1.3253088097    4.8365547622
O        0.8133990387   -0.4410092316    4.8144934309
H        0.0849154923   -1.0676539482    4.8165609711
H        3.7819447123   -2.1906417438    2.6293883686
H        3.7902590313   -2.3546403398    0.1571913008
15   

H        2.0124524303   -1.2864861670   -1.1912245682
C        1.9887733069   -1.2288036413   -0.1063846427
C        3.0061078118   -1.8165583557    0.6511139621
C        2.9781634857   -1.7394166970    2.0493711909
C        1.9290718553   -1.0744552886    2.7116042875
C        0.9136914080   -0.4819221412    1.9321024887
C        0.9434517836   -0.5606638331    0.5354842404
H        0.1548897040   -0.0960875823   -0.0501631665
H        0.0962616613    0.0568883458    2.4044489168
C        1.8997871848   -0.9847667810    4.1816034081
O        2.8238412094   -1.3846559978    4.8327016725
O        0.8135931305   -0.3839986397    4.7813436128
H        0.1343853978   -1.0226276622    5.0130069205
H        3.7788188842   -2.1957677126    2.6274559081
H        3.8230859027   -2.3317612028    0.1541035275
15   

H        2.0645050074   -1.2498064518   -1.2060668079
C        2.0244605806   -1.2045575056   -0.1211516711
C        3.0313849932   -1.7988917306    0.6450832355
C        2.9814258627   -1.7389011412    2.0436508426
C        1.9210648123   -1.0834398313    2.6976865050
C        0.9160112435   -0.4850901581    1.9090876184
C        0.9674107470   -0.5471184683    0.5123210898
H        0.1854360651   -0.0791878497   -0.0793887824
H        0.0874497345    0.0417410684    2.3755844985
C        1.8644636305   -1.0161122555    4.1688072952
O        2.7727895320   -1.4447172497    4.8270557774
O        0.8119089140   -0.3497498152    4.7476210989
H        0.2118246188   -0.9482730340    5.2015791505
H        3.7735083647   -2.2016941298    2.6282183380
H        3.8568740572   -2.3067175570    0.1546825075
15   

H        2.1054498777   -1.2293347045   -1.2160851002
C        2.0505368923   -1.1936189457   -0.1314905138
C        3.0484426213   -1.7918822237    0.6434521791
C        2.9786870635   -1.7449786732    2.0417456112
C        1.9079276863   -1.0975022788    2.6870042146
C        0.9117433847   -0.4960181818    1.8893578225
C        0.9825164624   -0.5455333605    0.4930001303
H        0.2062916278   -0.0760533425   -0.1049734623
H        0.0733103825    0.0209089388    2.3493632591
C        1.8283876185   -1.0446254665    4.1582480503
O        2.7179557128   -1.5064188120    4.8231435473
O        0.8069598146   -0.3320784798    4.7179659736
H        0.3143662119   -0.8554760994    5.3592634566
H        3.7635609110   -2.2116590567    2.6327667091
H        3.8820010045   -2.2931175679    0.1600461755
15   

H        2.1395006875   -1.2160649001   -1.2221905474
C        2.0722304878   -1.1859055946   -0.1381393612
C        3.0670487560   -1.7782398137    0.6453617777
C        2.9811037976   -1.7386745828    2.0430522386
C        1.8969694632   -1.1045003833    2.6790794708
C        0.9035552245   -0.5098876194    1.8727679002
C        0.9906930207   -0.5516507187    0.4771425732
H        0.2160919074   -0.0875871847   -0.1271111015
H        0.0537515708   -0.0057000124    2.3261865089
C        1.7990665535   -1.0595178949    4.1496603314
O        2.6824184080   -1.5241133775    4.8236025509
O        0.7732467616   -0.3583028982    4.6950932323
H        0.4261062690   -0.8001900064    5.4800685747
H        3.7633053818   -2.2012107099    2.6407304015
H        3.9105086306   -2.2695302672    0.1690291664
15   

H        2.1597643074   -1.2034060672   -1.2262339121
C        2.0832678460   -1.1788327534   -0.1426624610
C        3.0755104112   -1.7681200442    0.6464385443
C        2.9774398672   -1.7359888505    2.0435509244
C        1.8837167593   -1.1121840469    2.6732773674
C        0.8926031305   -0.5213458847    1.8614184077
C        0.9918858193   -0.5555328157    0.4664158715
H        0.2186502237   -0.0946740426   -0.1420082680
H        0.0346184423   -0.0271872563    2.3105996456
C        1.7732893668   -1.0739759448    4.1431246634
O        2.6438080444   -1.5545251973    4.8245058725
O        0.7399032048   -0.3917489861    4.6808940055
H        0.5371981302   -0.7272174910    5.5654997440
H        3.7573408286   -2.1965599025    2.6456722026
H        3.9261402705   -2.2515759181    0.1748887063
15   

H        2.1789637578   -1.1891835615   -1.2286800048
C        2.0952133310   -1.1693782885   -0.1455525707
C        3.0879659943   -1.7520016431    0.6479199732
C        2.9803148688   -1.7262634475    2.0444846305
C        1.8762579603   -1.1158479506    2.6690378593
C        0.8843815714   -0.5322823156    1.8529576667
C        0.9934490497   -0.5596250672    0.4585601594
H        0.2193225858   -0.1046491205   -0.1531446566
H        0.0177752145   -0.0501329664    2.2987463275
C        1.7556163487   -1.0842057432    4.1380139996
O        2.6168335977   -1.5726145196    4.8267461092
O        0.6983563091   -0.4452919620    4.6712270085
H        0.6316778721   -0.6531536498    5.6154453424
H        3.7600914347   -2.1822272539    2.6502286391
H        3.9461077747   -2.2257429603    0.1801522437
15   

H        2.1947373555   -1.1718993409   -1.2287321862
C        2.1059673119   -1.1574190354   -0.1459220229
C        3.1015892204   -1.7322259683    0.6496946374
C        2.9872788091   -1.7136386975    2.0458615012
C        1.8733663808   -1.1187168629    2.6677320614
C        0.8783520549   -0.5435258528    1.8495567320
C        0.9943765845   -0.5631388376    0.4556082868
H        0.2175954342   -0.1149157494   -0.1577180088
H        0.0034217287   -0.0748249279    2.2934684456
C        1.7453979085   -1.0948666235    4.1361303246
O        2.6008502046   -1.5892391563    4.8282333557
O        0.6573499088   -0.5109972470    4.6661220628
H        0.6999389110   -0.5653211222    5.6333332705
H        3.7687697564   -2.1642753278    2.6533678699
H        3.9668077847   -2.1948620203    0.1838598862
15   

H        2.2009845679   -1.1492732827   -1.2274089987
C        2.1103903923   -1.1418703207   -0.1446766620
C        3.1112096281   -1.7098749384    0.6492616690
C        2.9944068581   -1.7007214620    2.0452979728
C        1.8725236515   -1.1226113296    2.6688220742
C        0.8719845327   -0.5547447499    1.8522416195
C        0.9908391961   -0.5643511703    0.4584091148
H        0.2096752478   -0.1221289673   -0.1537020561
H       -0.0099685859   -0.1004071448    2.2971440353
C        1.7418525834   -1.1091454935    4.1372193448
O        2.5956212908   -1.6110535645    4.8255198551
O        0.6233568342   -0.5811941972    4.6668987331
H        0.7380839982   -0.4603478616    5.6215896631
H        3.7795803033   -2.1469048173    2.6513535523
H        3.9821314048   -2.1604558938    0.1822318352
15   

H        2.2027025849   -1.1255907893   -1.2237541533
C        2.1119373997   -1.1268755609   -0.1410064087
C        3.1182466809   -1.6906694345    0.6489070637
C        3.0011385980   -1.6930385151    2.0449204354
C        1.8733007138   -1.1310587035    2.6726771361
C        0.8668956786   -0.5679334066    1.8599349843
C        0.9863307502   -0.5655997350    0.4660957822
H        0.2005725916   -0.1274358241   -0.1430516025
H       -0.0207082172   -0.1274525862    2.3074059305
C        1.7425057022   -1.1297618481    4.1413487381
O        2.5948292523   -1.6432847721    4.8216789977
O        0.5999696414   -0.6453359559    4.6728183693
H        0.7515957899   -0.3386902404    5.5778783972
H        3.7903793101   -2.1366828752    2.6475812092
H        3.9934815366   -2.1295345232    0.1787779574
15   

H        2.2024899652   -1.1019281038   -1.2185544953
C        2.1119087978   -1.1140097985   -0.1358491244
C        3.1223079361   -1.6781045161    0.6485538578
C        3.0053644601   -1.6947107101    2.0444546650
C        1.8737139603   -1.1466449091    2.6777363221
C        0.8627523354   -0.5838354202    1.8704094181
C        0.9821330384   -0.5671721550    0.4766455463
H        0.1928328990   -0.1297492771   -0.1284584789
H       -0.0290738491   -0.1558009870    2.3214000125
C        1.7438508674   -1.1595768666    4.1464720475
O        2.5897002815   -1.6921276373    4.8182492012
O        0.5891191364   -0.6919566598    4.6844649821
H        0.7563617458   -0.2017551547    5.4991357891
H        3.7976048314   -2.1390514205    2.6427143783
H        4.0004644101   -2.1065179447    0.1742261573
15   

H        2.1953707595   -1.0663765308   -1.2108940773
C        2.1066735024   -1.0918852419   -0.1282498260
C        3.1239715254   -1.6550029713    0.6478134071
C        3.0094497904   -1.6892255507    2.0435225079
C        1.8734356323   -1.1600074994    2.6850129999
C        0.8549448772   -0.5989501748    1.8860778619
C        0.9721643382   -0.5642943875    0.4924014417
H        0.1772433730   -0.1286979793   -0.1066522541
H       -0.0417655916   -0.1876369528    2.3427181966
C        1.7466811696   -1.1926938506    4.1535312613
O        2.5937540428   -1.7314971790    4.8159724646
O        0.5843044840   -0.7355723178    4.7051138892
H        0.7466948565   -0.0720224771    5.3842213722
H        3.8068056488   -2.1332839684    2.6352650427
H        4.0054466548   -2.0694008056    0.1671744095
15   

H        2.1905616498   -1.0213619743   -1.1987880102
C        2.1017329456   -1.0645238261   -0.1166889368
C        3.1207665192   -1.6369115235    0.6502457305
C        3.0057409878   -1.6948395259    2.0450574319
C        1.8682811258   -1.1791042408    2.6946418318
C        0.8474533806   -0.6093433091    1.9051315765
C        0.9649217080   -0.5516362722    0.5121788673
H        0.1680663707   -0.1106747326   -0.0803905725
H       -0.0525425281   -0.2119725477    2.3675042316
C        1.7415560525   -1.2388603941    4.1617148102
O        2.5707986420   -1.8107868799    4.8154003260
O        0.6010662935   -0.7318610651    4.7354519092
H        0.7746081666    0.0716806668    5.2340629708
H        3.8038389957   -2.1467297633    2.6299727825
H        4.0037008155   -2.0406294772    0.1631615663
15   

H        2.1933942566   -0.9585613282   -1.1807817783
C        2.1027875019   -1.0221710037   -0.0998054350
C        3.1220424017   -1.6064455413    0.6578039412
C        3.0042706349   -1.6920970885    2.0508755635
C        1.8645768300   -1.1913327832    2.7078784115
C        0.8429178979   -0.6101779027    1.9280144077
C        0.9629666644   -0.5252910754    0.5366082865
H        0.1652735538   -0.0772628476   -0.0495661913
H       -0.0614190994   -0.2288686315    2.3953442571
C        1.7335516212   -1.2860274488    4.1720040923
O        2.5470794022   -1.8862187993    4.8167186007
O        0.6300193536   -0.7166803774    4.7707449260
H        0.8012632659    0.1859191574    5.0515072455
H        3.8016663562   -2.1543555744    2.6287721085
H        4.0068462827   -1.9987285745    0.1647089588
15   

H        2.1961165973   -0.8971862305   -1.1598379225
C        2.1040543082   -0.9792842893   -0.0801930120
C        3.1228118188   -1.5758502731    0.6684115641
C        3.0027544657   -1.6867884234    2.0594113169
C        1.8620127964   -1.1980255146    2.7233590458
C        0.8401507005   -0.6051394564    1.9526611855
C        0.9623575632   -0.4955512590    0.5631055365
H        0.1643574465   -0.0402642761   -0.0171107712
H       -0.0679664471   -0.2380875787    2.4240055350
C        1.7266546409   -1.3254933139    4.1840171593
O        2.5229916889   -1.9593575847    4.8163591587
O        0.6772039887   -0.6878346228    4.8066287560
H        0.8181736138    0.2612559474    4.8588873728
H        3.7989699315   -2.1597930105    2.6303707276
H        4.0086046009   -1.9589394386    0.1697948238
15   

H        2.1843008730   -0.8585513364   -1.1414662531
C        2.0944056431   -0.9525189982   -0.0625674389
C        3.1143974495   -1.5582284318    0.6768507761
C        2.9970526053   -1.6853167587    2.0665844640
C        1.8585922632   -1.2025882316    2.7386695242
C        0.8345161006   -0.6014773125    1.9771898815
C        0.9539718622   -0.4762192429    0.5886192057
H        0.1545180676   -0.0157630833    0.0144339161
H       -0.0748295007   -0.2435643746    2.4530356357
C        1.7265393064   -1.3498761132    4.1973771368
O        2.5034087052   -2.0224237029    4.8141474954
O        0.7378277358   -0.6540267079    4.8415011394
H        0.8070926336    0.2927333846    4.6857291610
H        3.7938533868   -2.1659125698    2.6305053514
H        3.9988984634   -1.9363209030    0.1720670777
15   

H        2.1519591407   -0.8483733653   -1.1305797739
C        2.0684137851   -0.9471769015   -0.0515692428
C        3.0908469596   -1.5603745915    0.6780539376
C        2.9819817227   -1.6936986800    2.0677315445
C        1.8505882212   -1.2086778528    2.7499170753
C        0.8228090946   -0.6012967283    1.9982720105
C        0.9337253427   -0.4703370984    0.6093687223
H        0.1321281091   -0.0054356931    0.0417322743
H       -0.0838779669   -0.2448895356    2.4799946961
C        1.7320799397   -1.3605367496    4.2090372779
O        2.4827995999   -2.0780554326    4.8083043997
O        0.8064534336   -0.6146942322    4.8726871738
H        0.7703461006    0.2910990003    4.5467632775
H        3.7808028346   -2.1795498689    2.6243921422
H        3.9708364058   -1.9391968932    0.1658932805
15   

H        2.1034376588   -0.8647232031   -1.1265595568
C        2.0299528074   -0.9618766397   -0.0466414805
C        3.0549729765   -1.5824741344    0.6727614291
C        2.9596196835   -1.7129514841    2.0635135857
C        1.8403964239   -1.2166564400    2.7574647330
C        0.8086426709   -0.6030501530    2.0161180455
C        0.9059143321   -0.4755870459    0.6256808042
H        0.1022934664   -0.0056196485    0.0650841867
H       -0.0911792797   -0.2394277570    2.5047677672
C        1.7446312744   -1.3600023303    4.2189677666
O        2.4629322401   -2.1234549509    4.8019628397
O        0.8796504269   -0.5710367319    4.8998210819
H        0.7136785513    0.2641547569    4.4462994831
H        3.7609957371   -2.2031235769    2.6127880516
H        3.9269288765   -1.9684161990    0.1521657271
15   

H        2.0483766351   -0.9004062062   -1.1277961410
C        1.9860157183   -0.9912886599   -0.0466174992
C        3.0102276251   -1.6234045773    0.6635133118
C        2.9298596730   -1.7445958126    2.0558600593
C        1.8278854772   -1.2264015816    2.7613008043
C        0.7957503231   -0.6018647054    2.0292942609
C        0.8776520463   -0.4847257981    0.6367657313
H        0.0748342135   -0.0057011890    0.0827146998
H       -0.0926427208   -0.2202673653    2.5243664321
C        1.7595380070   -1.3521456080    4.2260588572
O        2.4386596347   -2.1607815522    4.7957903969
O        0.9540626887   -0.5217672158    4.9195987469
H        0.6435407285    0.2201966115    4.3848134531
H        3.7315683061   -2.2416865025    2.5984814704
H        3.8706078675   -2.0241994181    0.1348853532
15   

H        1.9917914235   -0.9392918631   -1.1330658675
C        1.9428055443   -1.0198664024   -0.0503772068
C        2.9616868945   -1.6703968560    0.6501049225
C        2.8991579963   -1.7770343476    2.0443351729
C        1.8214338855   -1.2257539233    2.7626950518
C        0.7944339211   -0.5812688730    2.0399399286
C        0.8580569256   -0.4798260742    0.6450023415
H        0.0601675487    0.0153256145    0.0980783549
H       -0.0754944710   -0.1674584279    2.5406504721
C        1.7842938436   -1.3319329438    4.2312348889
O        2.4463763271   -2.1623277464    4.7902588936
O        1.0071194014   -0.4880788124    4.9361972834
H        0.5258321485    0.1307977126    4.3713620098
H        3.6984681829   -2.2865868933    2.5789349280
H        3.8049746095   -2.0954898687    0.1129515018
