6    

H       -0.5813512898   -0.0608603073   -0.7610458700
C        0.0265059673    0.3286329349    0.0624006965
H       -0.6522973287    0.6953306224    0.8397000424
O        0.8557889299   -0.6603361629    0.5687624673
H        0.3697193641   -1.4836917489    0.6802303178
Br       1.1586915796    1.7754620708   -0.5756472037
6    

H       -0.5793825569   -0.0852363270   -0.7328206589
C        0.0176068155    0.3321313926    0.0848333523
H       -0.6678158292    0.7406228682    0.8350405212
O        0.8212929711   -0.6421280780    0.6507245824
H        0.4136821729   -1.5103742030    0.5776212171
Br       1.1692769711    1.7554480840   -0.6005019863
6    

H       -0.5871308038   -0.1053865925   -0.7090612031
C        0.0036063445    0.3310030749    0.1031336618
H       -0.6834703818    0.7841909285    0.8256642328
O        0.7673522067   -0.6344618439    0.7259357844
H        0.4809464643   -1.5203883071    0.4858342521
Br       1.1874073467    1.7302178679   -0.6185521633
6    

H       -0.6059915047   -0.1194484047   -0.6887762395
C       -0.0146778335    0.3262494777    0.1179106011
H       -0.6980946862    0.8221305435    0.8154495407
O        0.6999665310   -0.6364018102    0.7873007636
H        0.5667291852   -1.5107505104    0.4089978283
Br       1.2109381148    1.6979772278   -0.6321342789
6    

H       -0.2601837307   -0.1106164651   -0.9364157146
C       -0.0530068624    0.2861478884    0.0629533344
H       -0.9967118752    0.6284620296    0.5008676580
O        0.4857228643   -0.6808204081    0.8633352535
H        0.8221988197   -1.4253920060    0.3532513752
Br       1.1653800933    1.8663572854   -0.0828251648
6    

H       -0.2915496088   -0.1088101031   -0.9387196108
C       -0.0763870936    0.2780318145    0.0628924880
H       -1.0105768672    0.6540394235    0.4935233414
O        0.4121303314   -0.7123610297    0.8589668526
H        0.9225117354   -1.3576735053    0.3551127491
Br       1.2029446674    1.8166542677   -0.0823387185
6    

H       -0.3276029342   -0.0952892471   -0.9451375349
C       -0.0986843349    0.2718448672    0.0608848946
H       -1.0201713166    0.6747598294    0.4945459805
O        0.3506349801   -0.7494746197    0.8376581246
H        1.0134388172   -1.2794658174    0.3760676553
Br       1.2388736074    1.7587335944   -0.0823001346
6    

H       -0.3679997959   -0.0692014676   -0.9551697341
C       -0.1171924212    0.2683668356    0.0560238990
H       -1.0226776318    0.6911061685    0.5042759518
O        0.3026500753   -0.7917456530    0.8006290524
H        1.0910032222   -1.1983819384    0.4167365848
Br       1.2697432603    1.6981847423   -0.0830490317
6    

H       -0.4144607466   -0.0346316618   -0.9668521769
C       -0.1308747877    0.2646684233    0.0477614473
H       -1.0171782968    0.6979525989    0.5234381396
O        0.2692542623   -0.8380401857    0.7477081564
H        1.1518012016   -1.1233807069    0.4773341183
Br       1.2926174216    1.6446482092   -0.0870725631
6    

H       -0.4651638541    0.0083253454   -0.9785847533
C       -0.1379202271    0.2621609083    0.0353002704
H       -1.0014928789    0.6963996993    0.5502822400
O        0.2513387554   -0.8849762839    0.6811041859
H        1.1919756744   -1.0600821392    0.5556259292
Br       1.3067299337    1.6027725353   -0.0941469222
6    

H       -0.5170514414    0.0537595664   -0.9883586675
C       -0.1394461515    0.2585205691    0.0191075890
H       -0.9766574135    0.6835496415    0.5829728516
O        0.2490553683   -0.9282219899    0.6033881813
H        1.2083814522   -1.0099822520    0.6461968028
Br       1.3139865548    1.5763468926   -0.1037999700
6    

H       -0.5655600757    0.0959595623   -0.9943941614
C       -0.1369423178    0.2528388716    0.0011881002
H       -0.9436260001    0.6597407259    0.6202201753
O        0.2623554178   -0.9632881261    0.5193244349
H        1.1995706802   -0.9710181467    0.7414743083
Br       1.3173629474    1.5651724938   -0.1165163957
6    

H       -0.6073172302    0.1316558709   -0.9954121065
C       -0.1313884678    0.2461613851   -0.0156689050
H       -0.9032067371    0.6290662940    0.6604830563
O        0.2892211148   -0.9870997005    0.4346908973
H        1.1649078092   -0.9434950191    0.8348089703
Br       1.3201677998    1.5664709752   -0.1340668405
6    

H       -0.6411954974    0.1576901330   -0.9899701075
C       -0.1230715823    0.2396502919   -0.0285349156
H       -0.8584840291    0.5945630355    0.7013206715
O        0.3282462997   -0.9985999640    0.3556470561
H        1.1071360904   -0.9316587934    0.9213806572
Br       1.3210540778    1.5806252183   -0.1596583155
6    

H       -0.6660332207    0.1727375158   -0.9782332167
C       -0.1113872168    0.2352533965   -0.0358973131
H       -0.8136592607    0.5607050297    0.7389172029
O        0.3774350281   -0.9984456838    0.2882830578
H        1.0308205092   -0.9410299855    0.9976488602
Br       1.3169336847    1.6075746076   -0.1952333407
6    

H       -0.6798524829    0.1774943669   -0.9624395741
C       -0.0951204216    0.2348364147   -0.0381330478
H       -0.7713905598    0.5324967026    0.7702151262
O        0.4350534840   -0.9885876171    0.2371669014
H        0.9413891649   -0.9733144171    1.0604121375
Br       1.3051297936    1.6446851914   -0.2392665551
6    

H       -0.6834645046    0.1710620927   -0.9454188194
C       -0.0759810870    0.2376205688   -0.0365323941
H       -0.7346339756    0.5118222496    0.7942877591
O        0.4992795391   -0.9702849559    0.2051087478
H        0.8434556474   -1.0239495674    1.1061796402
Br       1.2858670524    1.6876943998   -0.2876829556
6    

H       -0.6780360037    0.1565829801   -0.9285856242
C       -0.0541035143    0.2444418254   -0.0327484379
H       -0.7012518458    0.5023233256    0.8121566150
O        0.5686652282   -0.9449394665    0.1926044476
H        0.7418319019   -1.0861820341    1.1311410242
Br       1.2612784149    1.7286160395   -0.3363304650
6    

H       -0.6660777104    0.1338843394   -0.9130241397
C       -0.0317514077    0.2540993244   -0.0283176442
H       -0.6721369892    0.5038984486    0.8240845000
O        0.6415120808   -0.9122691955    0.2000685532
H        0.6407428297   -1.1527422561    1.1327858300
Br       1.2338911660    1.7630614695   -0.3804350573
6    

H       -0.6506743173    0.1052807899   -0.8972771351
C       -0.0106182736    0.2672342124   -0.0234255766
H       -0.6476952734    0.5182412698    0.8310745490
O        0.7145065452   -0.8715399421    0.2273489730
H        0.5460383080   -1.2178260418    1.1088566386
Br       1.2066279175    1.7868277891   -0.4178072392
6    

H       -0.6358136342    0.0711061993   -0.8771447775
C        0.0070418498    0.2813309860   -0.0157236117
H       -0.6301191526    0.5425098131    0.8356742183
O        0.7794815098   -0.8248474683    0.2724918507
H        0.4640668712   -1.2806980957    1.0581460728
Br       1.1837256052    1.7998394336   -0.4510328176
6    

H       -0.6211804355    0.0347247790   -0.8515089077
C        0.0202152108    0.2955345926   -0.0029394281
H       -0.6224653416    0.5741175376    0.8387870443
O        0.8292244082   -0.7759765323    0.3327646787
H        0.4010101576   -1.3405730816    0.9833066522
Br       1.1676640157    1.8038219900   -0.4828482425
6    

H       -0.6058265746   -0.0006425386   -0.8221848761
C        0.0279370110    0.3091127819    0.0155685208
H       -0.6259036574    0.6108678546    0.8406115101
O        0.8598532687   -0.7292997456    0.4051711012
H        0.3628959842   -1.3956224897    0.8906087906
Br       1.1580037709    1.8004475411   -0.5146712852
6    

H       -0.5912748952   -0.0327836327   -0.7914748484
C        0.0300331009    0.3205165246    0.0382941858
H       -0.6373307448    0.6514859642    0.8410681459
O        0.8687437554   -0.6898228926    0.4854328259
H        0.3520975846   -1.4443088187    0.7870949006
Br       1.1552147913    1.7905936092   -0.5461351047
