15   

H        1.8844836038   -1.1974114099   -1.1372589302
C        1.8989259051   -1.1491075119   -0.0516467054
C        2.9606301696   -1.7132787882    0.6606461392
C        2.9827074972   -1.6488138601    2.0589066818
C        1.9377002867   -1.0273811398    2.7676382645
C        0.8787644661   -0.4514122480    2.0340868754
C        0.8609359654   -0.5150090416    0.6358012264
H        0.0425689237   -0.0641621547    0.0808543333
H        0.0688492049    0.0724083513    2.5336911618
C        1.9680897212   -0.9741908872    4.2380961931
O        2.9986689886   -1.1458832446    4.8281131912
O        0.8177008376   -0.7689023661    4.9117254249
H        0.0392105000   -0.8750360873    4.3499263529
H        3.8160622592   -2.0885545054    2.6033530991
H        3.7727307767   -2.2015687756    0.1292294649
15   

H        1.8836720121   -1.2629966584   -1.1392468752
C        1.8975129029   -1.2018920343   -0.0542876480
C        2.9496612383   -1.7733267283    0.6666800424
C        2.9716341865   -1.6911767841    2.0642052533
C        1.9362440548   -1.0429525251    2.7629972412
C        0.8870038830   -0.4610352494    2.0206423822
C        0.8685940506   -0.5432186607    0.6235270191
H        0.0576315555   -0.0865552666    0.0625075949
H        0.0863574407    0.0823218391    2.5150184380
C        1.9669692172   -0.9570638609    4.2318026208
O        2.9798986341   -1.1865614993    4.8318058916
O        0.8201798788   -0.6788194542    4.8963881059
H        0.0378185925   -0.9607088413    4.4072844056
H        3.7987831707   -2.1346417542    2.6149666211
H        3.7551670013   -2.2796952078    0.1422473156
15   

H        1.8958472902   -1.3125067503   -1.1453677579
C        1.9057399031   -1.2419764040   -0.0609631794
C        2.9499782896   -1.8156591915    0.6699165675
C        2.9671774999   -1.7205215097    2.0668717251
C        1.9351404655   -1.0554392759    2.7547952253
C        0.8935597707   -0.4730679499    2.0023556965
C        0.8794328874   -0.5687191617    0.6062337401
H        0.0740214343   -0.1107281718    0.0383788234
H        0.0955355929    0.0802672826    2.4903534529
C        1.9609908645   -0.9456829309    4.2222495775
O        2.9519525252   -1.2278115673    4.8353835352
O        0.8187592339   -0.5923984266    4.8733959186
H        0.0425716754   -1.0278574338    4.5047499681
H        3.7891122974   -2.1644857149    2.6248650503
H        3.7535250546   -2.3330168286    0.1533413248
15   

H        1.9219863661   -1.3338990960   -1.1566116364
C        1.9244089161   -1.2605632645   -0.0723839412
C        2.9607641610   -1.8366223345    0.6679743318
C        2.9681708426   -1.7376288473    2.0649088993
C        1.9345630552   -1.0648764047    2.7430505294
C        0.9005092521   -0.4818426466    1.9810001499
C        0.8957460845   -0.5817011465    0.5852589264
H        0.0954024772   -0.1228533713    0.0110256918
H        0.0999448751    0.0732135023    2.4631307839
C        1.9493363838   -0.9460740059    4.2102333606
O        2.9157964688   -1.2750075839    4.8379326195
O        0.8161977537   -0.5119863117    4.8460295134
H        0.0570666120   -1.0666835643    4.6424416260
H        3.7843999790   -2.1830176568    2.6299482046
H        3.7659092830   -2.3585308505    0.1586066903
15   

H        1.9614655260   -1.3224285901   -1.1733844478
C        1.9526745238   -1.2536159776   -0.0889324038
C        2.9803828368   -1.8339622211    0.6601874114
C        2.9726502678   -1.7413364511    2.0576715653
C        1.9329505103   -1.0694559389    2.7274538396
C        0.9072916399   -0.4834489447    1.9565383894
C        0.9172736305   -0.5772435841    0.5605039884
H        0.1222463197   -0.1165675621   -0.0195395830
H        0.0997832942    0.0659357240    2.4336925828
C        1.9291472176   -0.9585095122    4.1957072780
O        2.8728462897   -1.3253088097    4.8365547622
O        0.8133990387   -0.4410092316    4.8144934309
H        0.0849154923   -1.0676539482    4.8165609711
H        3.7819508836   -2.1906278902    2.6293854567
H        3.7902699341   -2.3546146954    0.1571876831
15   

H        2.0124680052   -1.2864549263   -1.1912260535
C        1.9887868856   -1.2287767042   -0.1063859470
C        3.0061200760   -1.8165343101    0.6511121649
C        2.9781726018   -1.7393991252    2.0493696756
C        1.9290790514   -1.0744415191    2.7116035650
C        0.9137002947   -0.4819048421    1.9321022744
C        0.9434638195   -0.5606400394    0.5354837158
H        0.1549025088   -0.0960619527   -0.0501632626
H        0.0962685838    0.0569019405    2.4044495132
C        1.8997871848   -0.9847667810    4.1816034081
O        2.8238412094   -1.3846559978    4.8327016725
O        0.8135931305   -0.3839986397    4.7813436128
H        0.1343853978   -1.0226276622    5.0130069205
H        3.7788261982   -2.1957536674    2.6274541009
H        3.8230991205   -2.3317351349    0.1541012012
15   

H        2.0645207294   -1.2497791661   -1.2060674949
C        2.0244742090   -1.2045339525   -0.1211522799
C        3.0313971435   -1.7988708034    0.6450825234
C        2.9814348016   -1.7388858626    2.0436502604
C        1.9210719223   -1.0834277392    2.6976861786
C        0.9160201862   -0.4850748631    1.9090873867
C        0.9674228942   -0.5470975313    0.5123207215
H        0.1854491226   -0.0791652476   -0.0793890330
H        0.0874568422    0.0417532206    2.3755845485
C        1.8644636305   -1.0161122555    4.1688072952
O        2.7727895320   -1.4447172497    4.8270557774
O        0.8119089140   -0.3497498152    4.7476210989
H        0.2118246188   -0.9482730340    5.2015791505
H        3.7735154548   -2.2016820716    2.6282177020
H        3.8568871343   -2.3066949755    0.1546816444
15   

H        2.1054635813   -1.2293137349   -1.2160851715
C        2.0505487202   -1.1936008087   -0.1314905871
C        3.0484531214   -1.7918660738    0.6434522827
C        2.9786947449   -1.7449668273    2.0417457242
C        1.9079337719   -1.0974928889    2.6870041708
C        0.9117510748   -0.4960063738    1.8893575897
C        0.9825269747   -0.5455172412    0.4929998916
H        0.2063029593   -0.0760360047   -0.1049738088
H        0.0733164971    0.0209182719    2.3493629345
C        1.8283876185   -1.0446254665    4.1582480503
O        2.7179557128   -1.5064188120    4.8231435473
O        0.8069598146   -0.3320784798    4.7179659736
H        0.3143662119   -0.8554760994    5.3592634566
H        3.7635670146   -2.2116496868    2.6327669559
H        3.8820123323   -2.2931001713    0.1600464154
15   

H        2.1395105844   -1.2160498689   -1.2221904078
C        2.0722390403   -1.1858925389   -0.1381392501
C        3.0670562733   -1.7782282863    0.6453620487
C        2.9811092858   -1.7386661088    2.0430524756
C        1.8969738776   -1.1044935392    2.6790795266
C        0.9035608843   -0.5098789101    1.8727677860
C        0.9907007164   -0.5516389475    0.4771424958
H        0.2161002640   -0.0875744554   -0.1271112912
H        0.0537561577   -0.0056929797    2.3261862483
C        1.7990665535   -1.0595178949    4.1496603314
O        2.6824184080   -1.5241133775    4.8236025509
O        0.7732467616   -0.3583028982    4.6950932323
H        0.4261062690   -0.8001900064    5.4800685747
H        3.7633096676   -2.2012041273    2.6407307463
H        3.9105166756   -2.2695179740    0.1690295830
15   

H        2.1597707526   -1.2033960915   -1.2262337124
C        2.0832734162   -1.1788240906   -0.1426622939
C        3.0755152583   -1.7681124809    0.6464388003
C        2.9774433868   -1.7359833280    2.0435511384
C        1.8837196238   -1.1121795308    2.6732774504
C        0.8926068608   -0.5213400356    1.8614183959
C        0.9918908813   -0.5555249194    0.4664159055
H        0.2186557681   -0.0946654315   -0.1420083066
H        0.0346215159   -0.0271824466    2.3105995207
C        1.7732893668   -1.0739759448    4.1431246634
O        2.6438080444   -1.5545251973    4.8245058725
O        0.7399032048   -0.3917489861    4.6808940055
H        0.5371981302   -0.7272174910    5.5654997440
H        3.7573435202   -2.1965556967    2.6456724810
H        3.9261454298   -2.2515678989    0.1748890584
15   

H        2.1789670171   -1.1891779686   -1.2286798691
C        2.0952161319   -1.1693735051   -0.1455524534
C        3.0879684306   -1.7519974972    0.6479200819
C        2.9803166292   -1.7262604910    2.0444847124
C        1.8762593763   -1.1158455810    2.6690379203
C        0.8843834200   -0.5322792008    1.8529577352
C        0.9934515782   -0.5596207632    0.4585602589
H        0.2193253501   -0.1046443935   -0.1531445391
H        0.0177767353   -0.0501304250    2.2987463759
C        1.7556163487   -1.0842057432    4.1380139996
O        2.6168335977   -1.5726145196    4.8267461092
O        0.6983563091   -0.4452919620    4.6712270085
H        0.6316778721   -0.6531536498    5.6154453424
H        3.7600928018   -2.1822250017    2.6502287043
H        3.9461103813   -2.2257385066    0.1801523503
15   

H        2.1947373627   -1.1718994365   -1.2287321941
C        2.1059673256   -1.1574191222   -0.1459220303
C        3.1015892054   -1.7322261001    0.6496946341
C        2.9872787910   -1.7136388056    2.0458615013
C        1.8733663893   -1.1187169000    2.6677320559
C        0.8783520973   -0.5435258499    1.8495567158
C        0.9943766298   -0.5631388562    0.4556082710
H        0.2175955067   -0.1149157244   -0.1577180266
H        0.0034217979   -0.0748248695    2.2934684228
C        1.7453979085   -1.0948666235    4.1361303246
O        2.6008502046   -1.5892391563    4.8282333557
O        0.6573499088   -0.5109972470    4.6661220628
H        0.6999389110   -0.5653211222    5.6333332705
H        3.7687697194   -2.1642754704    2.6533678705
H        3.9668077465   -2.1948621957    0.1838598781
15   

H        2.2009820694   -1.1492786012   -1.2274091836
C        2.1103882098   -1.1418749087   -0.1446768247
C        3.1112076358   -1.7098790676    0.6492615940
C        2.9944053605   -1.7007244908    2.0452979305
C        1.8725224770   -1.1226136824    2.6688219860
C        0.8719831031   -0.5547476739    1.8522414398
C        0.9908372741   -0.5643551904    0.4584088967
H        0.2096732195   -0.1221332685   -0.1537023438
H       -0.0099696965   -0.1004094221    2.2971438293
C        1.7418525834   -1.1091454935    4.1372193448
O        2.5956212908   -1.6110535645    4.8255198551
O        0.6233568342   -0.5811941972    4.6668987331
H        0.7380839982   -0.4603478616    5.6215896631
H        3.7795790791   -2.1469072618    2.6513535861
H        3.9821292548   -2.1604603820    0.1822318108
15   

H        2.2026975233   -1.1256018907   -1.2237546371
C        2.1119330041   -1.1268851377   -0.1410068330
C        3.1182427450   -1.6906779421    0.6489068199
C        3.0011356998   -1.6930447180    2.0449202873
C        1.8732984172   -1.1310635932    2.6726769160
C        0.8668928066   -0.5679395990    1.8599345662
C        0.9863268434   -0.5656082370    0.4660952685
H        0.2005684045   -0.1274450060   -0.1430522453
H       -0.0207104772   -0.1274574971    2.3074054671
C        1.7425057022   -1.1297618481    4.1413487381
O        2.5948292523   -1.6432847721    4.8216789977
O        0.5999696414   -0.6453359559    4.6728183693
H        0.7515957899   -0.3386902404    5.5778783972
H        3.7903770192   -2.1366878015    2.6475812076
H        3.9934772944   -2.1295437232    0.1787777885
15   

H        2.2024820519   -1.1019447067   -1.2185553966
C        2.1119019567   -1.1140241400   -0.1358499106
C        3.1223018868   -1.6781171790    0.6485532605
C        3.0053600595   -1.6947199530    2.0444542541
C        1.8737104501   -1.1466523039    2.6777359189
C        0.8627478765   -0.5838448220    1.8704087929
C        0.9821269270   -0.5671849811    0.4766447429
H        0.1928262928   -0.1297631551   -0.1284593960
H       -0.0290773888   -0.1558085052    2.3213994155
C        1.7438508674   -1.1595768666    4.1464720475
O        2.5897002815   -1.6921276373    4.8182492012
O        0.5891191364   -0.6919566598    4.6844649821
H        0.7563617458   -0.2017551547    5.4991357891
H        3.7976014219   -2.1390586432    2.6427141513
H        4.0004579173   -2.1065315422    0.1742255850
15   

H        2.1953606009   -1.0663992566   -1.2108955120
C        2.1066646678   -1.0919048917   -0.1282510804
C        3.1239637420   -1.6550202060    0.6478125259
C        3.0094440632   -1.6892381145    2.0435219112
C        1.8734309754   -1.1600176586    2.6850123395
C        0.8549389350   -0.5989632486    1.8860767895
C        0.9721563393   -0.5643121205    0.4924000822
H        0.1772347171   -0.1287172539   -0.1066538613
H       -0.0417704188   -0.1876476172    2.3427171437
C        1.7466811696   -1.1926938506    4.1535312613
O        2.5937540428   -1.7314971790    4.8159724646
O        0.5843044840   -0.7355723178    4.7051138892
H        0.7466948565   -0.0720224771    5.3842213722
H        3.8068012461   -2.1332936690    2.6352648039
H        4.0054383929   -2.0694192027    0.1671736515
15   

H        2.1905470086   -1.0213895791   -1.1987904369
C        2.1017203261   -1.0645477386   -0.1166910501
C        3.1207553337   -1.6369328018    0.6502436719
C        3.0057328468   -1.6948551539    2.0450558610
C        1.8682746907   -1.1791166583    2.6946407269
C        0.8474452052   -0.6093589752    1.9051303725
C        0.9649104827   -0.5516576005    0.5121771670
H        0.1680542195   -0.1106977106   -0.0803922503
H       -0.0525490388   -0.2119850143    2.3675035158
C        1.7415560525   -1.2388603941    4.1617148102
O        2.5707986420   -1.8107868799    4.8154003260
O        0.6010662935   -0.7318610651    4.7354519092
H        0.7746081666    0.0716806668    5.2340629708
H        3.8038325881   -2.1467421361    2.6299713554
H        4.0036887434   -2.0406523722    0.1631592436
15   

H        2.1933761474   -0.9585903833   -1.1807851785
C        2.1027719579   -1.0221962537   -0.0998083990
C        3.1220287035   -1.6064680505    0.6578005923
C        3.0042607389   -1.6921137109    2.0508728885
C        1.8645690333   -1.1913460360    2.7078768290
C        0.8429079068   -0.6101945634    1.9280131800
C        0.9629528470   -0.5253136677    0.5366063550
H        0.1652585085   -0.0772871601   -0.0495677589
H       -0.0614270850   -0.2288818787    2.3953441127
C        1.7335516212   -1.2860274488    4.1720040923
O        2.5470794022   -1.8862187993    4.8167186007
O        0.6300193536   -0.7166803774    4.7707449260
H        0.8012632659    0.1859191574    5.0515072455
H        3.8016585508   -2.1543687422    2.6287693070
H        4.0068314578   -1.9987527337    0.1647048984
15   

H        2.1960974015   -0.8972128043   -1.1598418058
C        2.1040379142   -0.9793073820   -0.0801963935
C        3.1227973874   -1.5758709497    0.6684074114
C        3.0027440914   -1.6868037029    2.0594079234
C        1.8620046740   -1.1980376412    2.7233572201
C        0.8401402766   -0.6051546069    1.9526601268
C        0.9623430745   -0.4955718194    0.5631036693
H        0.1643416509   -0.0402863091   -0.0171119845
H       -0.0679747841   -0.2380995412    2.4240060050
C        1.7266546409   -1.3254933139    4.1840171593
O        2.5229916889   -1.9593575847    4.8163591587
O        0.6772039887   -0.6878346228    4.8066287560
H        0.8181736138    0.2612559474    4.8588873728
H        3.7989617065   -2.1598051516    2.6303669411
H        4.0085889072   -1.9589616720    0.1697896170
15   

H        2.1842827867   -0.8585724888   -1.1414698178
C        2.0943902946   -0.9525373856   -0.0625705352
C        3.1143839473   -1.5582450320    0.6768465753
C        2.9970429854   -1.6853290714    2.0665809623
C        1.8585848440   -1.2025979027    2.7386678614
C        0.8345065588   -0.6014892403    1.9771893365
C        0.9539584118   -0.4762354878    0.5886179070
H        0.1545033532   -0.0157803993    0.0144335269
H       -0.0748370686   -0.2435736233    2.4530368301
C        1.7265393064   -1.3498761132    4.1973771368
O        2.5034087052   -2.0224237029    4.8141474954
O        0.7378277358   -0.6540267079    4.8415011394
H        0.8070926336    0.2927333846    4.6857291610
H        3.7938456895   -2.1659224781    2.6305011852
H        3.9988836712   -1.9363388398    0.1720616101
15   

H        2.1519449559   -0.8483882143   -1.1305823301
C        2.0684017615   -0.9471898061   -0.0515714547
C        3.0908364059   -1.5603862197    0.6780507106
C        2.9819742139   -1.6937073070    2.0677288196
C        1.8505824111   -1.2086846693    2.7499158944
C        0.8228016193   -0.6013051215    1.9982718801
C        0.9337148129   -0.4703485046    0.6093680358
H        0.1321165876   -0.0054478276    0.0417324019
H       -0.0838839168   -0.2448960456    2.4799960308
C        1.7320799397   -1.3605367496    4.2090372779
O        2.4827995999   -2.0780554326    4.8083043997
O        0.8064534336   -0.6146942322    4.8726871738
H        0.7703461006    0.2910990003    4.5467632775
H        3.7807968404   -2.1795567544    2.6243887697
H        3.9708248445   -1.9392094153    0.1658889751
15   

H        2.1034276308   -0.8647324894   -1.1265611112
C        2.0299443113   -0.9618847496   -0.0466428244
C        3.0549655170   -1.5824814633    0.6727592600
C        2.9596143874   -1.7129569397    2.0635117236
C        1.8403923436   -1.2166607535    2.7574640318
C        0.8086373967   -0.6030554840    2.0161181912
C        0.9059068845   -0.4755942644    0.6256806005
H        0.1022852854   -0.0056273572    0.0650846284
H       -0.0911835056   -0.2394319326    2.5047689777
C        1.7446312744   -1.3600023303    4.2189677666
O        2.4629322401   -2.1234549509    4.8019628397
O        0.8796504269   -0.5710367319    4.8998210819
H        0.7136785513    0.2641547569    4.4462994831
H        3.7609914978   -2.2031279523    2.6127856182
H        3.9269206807   -1.9684240988    0.1521627402
15   

H        2.0483714958   -0.9004103085   -1.1277967487
C        1.9860113740   -0.9912922464   -0.0466180181
C        3.0102238147   -1.6234078344    0.6635123077
C        2.9298569806   -1.7445982637    2.0558591796
C        1.8278834085   -1.2264035362    2.7613005428
C        0.7957476544   -0.6018670799    2.0292945030
C        0.8776482583   -0.4847289797    0.6367658299
H        0.0748300573   -0.0057045492    0.0827151782
H       -0.0926448469   -0.2202692130    2.5243672381
C        1.7595380070   -1.3521456080    4.2260588572
O        2.4386596347   -2.1607815522    4.7957903969
O        0.9540626887   -0.5217672158    4.9195987469
H        0.6435407285    0.2201966115    4.3848134531
H        3.7315661523   -2.2416884731    2.5984802418
H        3.8706036716   -2.0242029172    0.1348839040
15   

H        1.9917912451   -0.9392916526   -1.1330658666
C        1.9428054008   -1.0198662470   -0.0503772065
C        2.9616868004   -1.6703966850    0.6501048673
C        2.8991579524   -1.7770342391    2.0443351183
C        1.8214338465   -1.2257538847    2.7626950532
C        0.7944338208   -0.5812688642    2.0399399851
C        0.8580567745   -0.4798260099    0.6450023993
H        0.0601673483    0.0153256461    0.0980784569
H       -0.0754945843   -0.1674584940    2.5406505713
C        1.7842938436   -1.3319329438    4.2312348889
O        2.4463763271   -2.1623277464    4.7902588936
O        1.0071194014   -0.4880788124    4.9361972834
H        0.5258321485    0.1307977126    4.3713620098
H        3.6984681698   -2.2865867791    2.5789348318
H        3.8049745131   -2.0954896396    0.1129513992
