23   

H        1.8984908130    0.9385237441   -0.4661783286
C        1.8907744957    0.1605562481    0.2919775058
C        3.0743815018   -0.5076659899    0.6228709839
C        3.0592549674   -1.5147039179    1.5958540207
C        1.8666965772   -1.8504862048    2.2574962600
C        0.6870695772   -1.1861297332    1.9061801293
C        0.6945638203   -0.1814958536    0.9310953605
H       -0.2288398740    0.3272071283    0.6688126675
H       -0.2386020223   -1.4635629838    2.4004786049
O        1.8087240952   -2.8575520936    3.1885241174
C        2.7086911529   -2.9181285897    4.2166671249
C        3.4920174382   -1.8352806462    4.6582541907
C        4.3555612027   -1.9857328956    5.7502574879
C        4.4299340555   -3.2124976988    6.4178582608
C        3.6342431396   -4.2835962708    5.9984149485
C        2.7726561998   -4.1274378449    4.9055459888
H        2.1473509039   -4.9531412850    4.5806625774
H        3.6811558131   -5.2346692344    6.5213225324
H        5.0976791226   -3.3305351954    7.2665346202
H        4.9604457800   -1.1472055107    6.0836883866
H        3.4241663597   -0.8688004570    4.1697320785
H        3.9730962071   -2.0482942452    1.8381860018
H        4.0027027404   -0.2514922778    0.1201047162
23   

H        1.9984503473    0.7716238333   -0.6011839351
C        1.9399994640    0.0602586639    0.2177282453
C        3.0928320550   -0.5974456280    0.6587645868
C        3.0132984037   -1.5188050518    1.7104019330
C        1.7841426440   -1.7797184142    2.3416672824
C        0.6370337284   -1.1255441511    1.8797494933
C        0.7095138398   -0.2068121690    0.8259368172
H       -0.1902637406    0.2937327865    0.4793953683
H       -0.3161732057   -1.3432755108    2.3511227697
O        1.6507934650   -2.6956844041    3.3518743191
C        2.6285443693   -2.8330584680    4.3015392742
C        3.4126587612   -1.7653727218    4.7725185673
C        4.3661502831   -1.9765937019    5.7758267770
C        4.5304159018   -3.2533638314    6.3233824541
C        3.7363979564   -4.3132433805    5.8720480222
C        2.7847299819   -4.0947187491    4.8679555562
H        2.1599771007   -4.9107950568    4.5186739322
H        3.8543179197   -5.3038727113    6.3020962286
H        5.2674328408   -3.4198712363    7.1038730256
H        4.9711434757   -1.1482447356    6.1336405161
H        3.2718022759   -0.7679773638    4.3679877329
H        3.9078753669   -2.0425583728    2.0325616690
H        4.0481838376   -0.3998906470    0.1808225187
23   

H        2.0688278223    0.5869599324   -0.7200575862
C        1.9740314363   -0.0531855136    0.1524552268
C        3.1032399173   -0.6806590856    0.6876979211
C        2.9780507022   -1.5100089020    1.8092156486
C        1.7237126212   -1.7100478616    2.4161330511
C        0.6019529545   -1.0847199716    1.8605976349
C        0.7208231445   -0.2581034230    0.7371349096
H       -0.1606903289    0.2199304253    0.3192474938
H       -0.3695297232   -1.2520937193    2.3149382083
O        1.5352500034   -2.5271427914    3.4978301826
C        2.5650091123   -2.7429930044    4.3812335361
C        3.3408042960   -1.6981633467    4.9080398162
C        4.3594376949   -1.9688976659    5.8295711822
C        4.5986532794   -3.2866096076    6.2347087446
C        3.8165510963   -4.3274050347    5.7212068009
C        2.7995553648   -4.0475882414    4.7995110431
H        2.1840299703   -4.8480979765    4.4013160043
H        3.9946348433   -5.3507791797    6.0393409265
H        5.3860156075   -3.5007479199    6.9518618054
H        4.9576275342   -1.1568281270    6.2332295794
H        3.1405931680   -0.6758781510    4.6022662360
H        3.8601475256   -2.0071088841    2.2002268160
H        4.0768088681   -0.5306442414    0.2296669748
23   

H        2.1028878042    0.3580591506   -0.8468529722
C        1.9875895237   -0.1968662000    0.0798585366
C        3.1021914560   -0.7766967638    0.6931730815
C        2.9517519909   -1.4954362640    1.8857601308
C        1.6839057230   -1.6340039052    2.4847021059
C        0.5781948365   -1.0542820370    1.8522214948
C        0.7230833819   -0.3379865219    0.6583658405
H       -0.1470305838    0.1050178436    0.1820863141
H       -0.4024574556   -1.1697063988    2.3030165581
O        1.4624744899   -2.3333758719    3.6385606004
C        2.5268932159   -2.6368282667    4.4595060707
C        3.3040995581   -1.6344498086    5.0568711345
C        4.3666947247   -1.9737870611    5.9029263115
C        4.6498570872   -3.3205093633    6.1567727622
C        3.8693477275   -4.3211821449    5.5661867494
C        2.8082320051   -3.9714888200    4.7211525804
H        2.1940818057   -4.7399796632    4.2623922347
H        4.0831606652   -5.3675770509    5.7651312474
H        5.4712507417   -3.5888596858    6.8151180848
H        4.9656040777   -1.1934974584    6.3641272728
H        3.0694695962   -0.5929980291    4.8595871883
H        3.8283292455   -1.9509044600    2.3351589737
H        4.0851176514   -0.6742864290    0.2420806110
23   

H        2.1012615059    0.1157142173   -0.9635908783
C        1.9812677251   -0.3505394818    0.0101759027
C        3.0929489180   -0.8683085115    0.6812671507
C        2.9374473825   -1.4712311490    1.9357919609
C        1.6653058117   -1.5587425584    2.5373136343
C        0.5635587885   -1.0385022961    1.8483751347
C        0.7142423291   -0.4368627935    0.5935392995
H       -0.1532434970   -0.0390244009    0.0745327882
H       -0.4191215287   -1.1089951301    2.3039812821
O        1.4348592280   -2.1372374293    3.7537481295
C        2.5158072705   -2.5252510910    4.5221216987
C        3.2781904966   -1.5814032497    5.2214564983
C        4.3606772069   -1.9907045525    6.0093962646
C        4.6791649283   -3.3504834910    6.0993579468
C        3.9146349340   -4.2938450161    5.4028383687
C        2.8333385686   -3.8734572125    4.6177061974
H        2.2312225325   -4.5968666392    4.0769918519
H        4.1564533984   -5.3506288075    5.4734074078
H        5.5159626486   -3.6737041932    6.7120785193
H        4.9478647897   -1.2550413501    6.5518702840
H        3.0160440454   -0.5306371855    5.1467970268
H        3.8162241015   -1.8723437560    2.4302911915
H        4.0784604931   -0.8055180991    0.2285688844
23   

H        2.0664161203   -0.1361658784   -1.0746229894
C        1.9578442324   -0.5104677495   -0.0606614849
C        3.0780408898   -0.9607749130    0.6440177991
C        2.9377934671   -1.4431997236    1.9513525495
C        1.6714168106   -1.4810235211    2.5704953253
C        0.5616848179   -1.0255773872    1.8491866170
C        0.6975741275   -0.5426534225    0.5424304453
H       -0.1759635049   -0.1936254354   -0.0009656587
H       -0.4155107158   -1.0519446342    2.3209845939
O        1.4558264083   -1.9363265013    3.8405393647
C        2.5345475915   -2.4056431839    4.5680903607
C        3.2599750462   -1.5423759286    5.3966848430
C        4.3370628818   -2.0237583938    6.1506800062
C        4.6869109108   -3.3767122864    6.0766407155
C        3.9584766116   -4.2412382026    5.2512869002
C        2.8821548837   -3.7486143886    4.5022715553
H        2.3066947141   -4.4114236169    3.8636441711
H        4.2237946227   -5.2932132441    5.1945987892
H        5.5194551681   -3.7561365438    6.6623335384
H        4.8954657357   -1.3495026987    6.7939778278
H        2.9732070691   -0.4967664551    5.4487480649
H        3.8250858177   -1.7855258432    2.4740413060
H        4.0588831588   -0.9365825648    0.1776762499
23   

H        1.9944761040   -0.3914234381   -1.1732849738
C        1.9144445970   -0.6715854943   -0.1268053330
C        3.0553208456   -1.0508865595    0.5865894641
C        2.9518884316   -1.4098081068    1.9364078360
C        1.7019229955   -1.3985963208    2.5880979991
C        0.5716017598   -1.0114891964    1.8590337229
C        0.6707390467   -0.6501808983    0.5103558906
H       -0.2181658613   -0.3526005090   -0.0387093805
H       -0.3921565914   -0.9942174738    2.3581134445
O        1.5254732395   -1.7283895987    3.9026220519
C        2.5812253365   -2.2805830787    4.6011409328
C        3.2526505064   -1.5227849356    5.5663613458
C        4.3004858432   -2.0836774518    6.3065746194
C        4.6743129732   -3.4134254475    6.0834644573
C        3.9975283403   -4.1758859026    5.1247566525
C        2.9499376465   -3.6040878219    4.3915518378
H        2.4126620181   -4.1905357527    3.6527048854
H        4.2795726822   -5.2108956839    4.9531295042
H        5.4841169238   -3.8546391470    6.6576325862
H        4.8170275616   -1.4892249975    7.0549512642
H        2.9468420220   -0.4951253789    5.7353679368
H        3.8545305270   -1.6909928090    2.4692132971
H        4.0238388399   -1.0646747351    0.0947596968
23   

H        1.9010763746   -0.6398725564   -1.2460752882
C        1.8610493851   -0.8266765129   -0.1767123533
C        3.0322546818   -1.1209443912    0.5279102717
C        2.9799285661   -1.3573535404    1.9073298250
C        1.7521040164   -1.3122476907    2.5966313800
C        0.5911907645   -1.0071066437    1.8770977678
C        0.6388997722   -0.7666938762    0.4989274069
H       -0.2728170894   -0.5314959456   -0.0429691770
H       -0.3549465267   -0.9574698603    2.4067967800
O        1.6324145361   -1.5166551058    3.9434358634
C        2.6421920928   -2.1589015665    4.6239299687
C        3.2510959060   -1.5205130365    5.7096515505
C        4.2500950839   -2.1664775722    6.4479510683
C        4.6378351928   -3.4655071475    6.1033899021
C        4.0219853081   -4.1126487644    5.0266741903
C        3.0226706000   -3.4560878031    4.2970907665
H        2.5315772728   -3.9593298955    3.4698994040
H        4.3127777693   -5.1250837300    4.7608836824
H        5.4098109972   -3.9728823637    6.6749900994
H        4.7175730620   -1.6616877810    7.2887215398
H        2.9349735149   -0.5162902626    5.9737805285
H        3.9032014470   -1.5669703071    2.4378951964
H        3.9844565211   -1.1610401524    0.0065376702
23   

H        1.7956316143   -0.8594372722   -1.2881268805
C        1.8032665190   -0.9610587605   -0.2066123064
C        3.0100737013   -1.1644034984    0.4699723957
C        3.0182419187   -1.2893642406    1.8648057848
C        1.8177823365   -1.2264901433    2.5967676549
C        0.6204329101   -1.0094318665    1.9060835845
C        0.6069616329   -0.8796079169    0.5122996849
H       -0.3317881161   -0.7121208951   -0.0081989055
H       -0.3044577947   -0.9405707447    2.4700467933
O        1.7685981212   -1.3157798430    3.9620292825
C        2.7091140879   -2.0522141028    4.6380221013
C        3.2444071155   -1.5314881963    5.8215397643
C        4.1783583829   -2.2604875459    6.5674012016
C        4.5765849033   -3.5280196717    6.1319313621
C        4.0347983609   -4.0602653915    4.9575369415
C        3.0999620326   -3.3207400275    4.2216655501
H        2.6670367910   -3.7454301662    3.3211820950
H        4.3323493889   -5.0491153132    4.6201228088
H        5.2984248431   -4.1000846163    6.7079299814
H        4.5875789753   -1.8438484183    7.4834679979
H        2.9224839301   -0.5502295739    6.1557296160
H        3.9640910347   -1.4252152052    2.3796948157
H        3.9422408865   -1.2183088383   -0.0852763327
23   

H        1.6713599928   -1.0577236032   -1.3083580762
C        1.7370864061   -1.0811323623   -0.2242855342
C        2.9823428428   -1.2071593797    0.4000113069
C        3.0643615010   -1.2302839401    1.7977877079
C        1.9020845050   -1.1445083060    2.5840333558
C        0.6650354086   -1.0031028497    1.9463365226
C        0.5770304842   -0.9747038548    0.5494041343
H       -0.3910447282   -0.8653800459    0.0686597139
H       -0.2303705515   -0.9126029331    2.5531799492
O        1.9388981102   -1.1282046425    3.9544780172
C        2.7854260328   -1.9582640550    4.6398562146
C        3.2356622795   -1.5385871837    5.8973862227
C        4.0854125788   -2.3441490302    6.6644924146
C        4.4879752417   -3.5895232631    6.1747975318
C        4.0339042381   -4.0216148518    4.9251365147
C        3.1827262624   -3.2051973424    4.1688752393
H        2.8202981657   -3.5657901163    3.2114047643
H        4.3345217553   -4.9933729309    4.5436823767
H        5.1450830094   -4.2213544631    6.7656166818
H        4.4269965053   -2.0028920572    7.6376710409
H        2.9143081227   -0.5721211680    6.2727589861
H        4.0348726695   -1.3057844664    2.2783051525
H        3.8861420284   -1.2789927255   -0.1984464457
23   

H        1.5323320532   -1.2104590532   -1.3040655956
C        1.6641039607   -1.1705294534   -0.2265031768
C        2.9486257962   -1.2238076740    0.3250747675
C        3.1148799025   -1.1648612062    1.7142558349
C        2.0003015341   -1.0702326556    2.5632096068
C        0.7223281392   -1.0014932404    1.9990972113
C        0.5495160709   -1.0549343819    0.6107422151
H       -0.4487913074   -1.0013906456    0.1855822073
H       -0.1365347486   -0.9025212838    2.6553921624
O        2.1326642202   -0.9711959764    3.9268661600
C        2.8690053794   -1.8836210833    4.6306490479
C        3.2114526137   -1.5496079920    5.9471071591
C        3.9615662843   -2.4222551592    6.7438156234
C        4.3763682283   -3.6503029708    6.2233843798
C        4.0342942090   -3.9960794293    4.9131522194
C        3.2822580060   -3.1121417162    4.1278026998
H        3.0115226591   -3.4173633767    3.1225127996
H        4.3459825127   -4.9535019250    4.5052635657
H        4.9572043463   -4.3343680411    6.8355426718
H        4.2180306495   -2.1451494683    7.7624590012
H        2.8851996753   -0.5940975638    6.3456327014
H        4.1116811741   -1.1855288815    2.1438745825
H        3.8166046088   -1.3027473849   -0.3234384289
23   

H        1.2469025646   -1.4144908342   -1.2414997559
C        1.5851175160   -1.2809522563   -0.2178377656
C        2.8312968337   -0.6980336805    0.0367191714
C        3.2640223051   -0.5251879825    1.3570697881
C        2.4641048964   -0.9357900897    2.4281021601
C        1.2079414333   -1.5018293621    2.1653640035
C        0.7713116919   -1.6825200148    0.8471843469
H       -0.2005957638   -2.1270639818    0.6522904584
H        0.5753572012   -1.7956173481    2.9972802779
O        2.8946752206   -0.7162165503    3.7177756656
C        3.1518984002   -1.7652357888    4.5559138415
C        3.5682176260   -1.4494712334    5.8557801524
C        3.8413017431   -2.4516828926    6.7936541526
C        3.6969803820   -3.7931732977    6.4334987079
C        3.2825812623   -4.1193063183    5.1394039512
C        3.0126030980   -3.1043669211    4.2114142980
H        2.7082045967   -3.3949428671    3.2119426857
H        3.1729321226   -5.1609551512    4.8511198689
H        3.9075759876   -4.5778779605    7.1545571223
H        4.1633495718   -2.1860064971    7.7965899050
H        3.6756889359   -0.4048592393    6.1305463365
H        4.2253095327   -0.0659738933    1.5648487134
H        3.4609202985   -0.3749555775   -0.7875589210
23   

H        1.0662060566   -1.3521734362   -1.1787621784
C        1.4904951112   -1.2414260194   -0.1848754704
C        2.7388891481   -0.6320406753   -0.0211336745
C        3.2824298200   -0.4885792863    1.2611348282
C        2.5939213472   -0.9556819368    2.3853775747
C        1.3319254406   -1.5471064630    2.2136211414
C        0.7848611868   -1.6980959596    0.9334376762
H       -0.1896699395   -2.1620245442    0.8099607230
H        0.7775281629   -1.8822288786    3.0847981903
O        3.1397387665   -0.7581421930    3.6303591176
C        3.2579141447   -1.7907096323    4.5190969851
C        3.5287218852   -1.4583435916    5.8525469480
C        3.6680441103   -2.4486866068    6.8316956053
C        3.5385973731   -3.7938317112    6.4783678291
C        3.2750055726   -4.1364793681    5.1493063120
C        3.1386959461   -3.1337074978    4.1800024554
H        2.9576600912   -3.4303890392    3.1522494856
H        3.1821233109   -5.1811486127    4.8660777284
H        3.6471737334   -4.5689345804    7.2316803035
H        3.8772870864   -2.1711673076    7.8609653740
H        3.6289387330   -0.4111615318    6.1201869077
H        4.2463347440   -0.0086106004    1.3978243525
H        3.2845864285   -0.2655544833   -0.8860892925
23   

H        0.9062018410   -1.2700538090   -1.1013847371
C        1.4064026104   -1.1907076141   -0.1403519236
C        2.6588692360   -0.5748969385   -0.0522486220
C        3.3001724591   -0.4722616713    1.1879818449
C        2.7073001223   -0.9857659835    2.3463249061
C        1.4390614214   -1.5847881329    2.2505250657
C        0.7946500405   -1.6946015059    1.0120958360
H       -0.1831379698   -2.1636581206    0.9482153795
H        0.9507305187   -1.9572534826    3.1456745392
O        3.3584945345   -0.8260826085    3.5422037414
C        3.3524377323   -1.8249839196    4.4789341383
C        3.4732578954   -1.4590615433    5.8249391827
C        3.4964327613   -2.4270988183    6.8357905087
C        3.4043242084   -3.7806764035    6.5008965468
C        3.2950900420   -4.1557266712    5.1585326773
C        3.2743884496   -3.1758962533    4.1572937673
H        3.2131115527   -3.4851302990    3.1186645520
H        3.2340786898   -5.2068563232    4.8909593907
H        3.4243910885   -4.5377329286    7.2796978568
H        3.5890976416   -2.1261881785    7.8755397368
H        3.5493939846   -0.4058575805    6.0763255649
H        4.2686102071    0.0118745626    1.2650657046
H        3.1324912683   -0.1721634886   -0.9431606795
23   

H        0.7522852341   -1.1442182543   -1.0082507702
C        1.3229550758   -1.1119069226   -0.0844810201
C        2.5816583261   -0.5038698681   -0.0604846568
C        3.3138315245   -0.4625392364    1.1319452348
C        2.8070508091   -1.0280437844    2.3071812783
C        1.5315209893   -1.6220892691    2.2757905982
C        0.7965585608   -1.6700036325    1.0846740996
H       -0.1854236994   -2.1344053440    1.0711192458
H        1.1023088221   -2.0396971261    3.1810981725
O        3.5583426584   -0.9293428099    3.4474028844
C        3.4424678578   -1.8790251733    4.4317574559
C        3.4149093822   -1.4604127161    5.7668301735
C        3.3361377971   -2.3922029783    6.8087295733
C        3.2931402646   -3.7586005108    6.5155621389
C        3.3346743462   -4.1843214941    5.1839992711
C        3.4150832974   -3.2413259440    4.1512218819
H        3.4669014844   -3.5764519005    3.1198818891
H        3.3125028321   -5.2451151573    4.9506923174
H        3.2353317446   -4.4867639299    7.3196276528
H        3.3136150258   -2.0537392133    7.8407973957
H        3.4573841413   -0.3978515070    5.9844260304
H        4.2887664690    0.0139485884    1.1580559765
H        2.9904571053   -0.0604771207   -0.9640916409
23   

H        0.6069043236   -0.9766797122   -0.8984137914
C        1.2412116643   -1.0063849528   -0.0170473581
C        2.5065737141   -0.4132532937   -0.0451730956
C        3.3209045048   -0.4526806780    1.0926931803
C        2.8906797294   -1.0825175385    2.2660522535
C        1.6084250031   -1.6657171194    2.2866829645
C        0.7914035482   -1.6318488137    1.1496897050
H       -0.1944958988   -2.0872675066    1.1765495649
H        1.2329235918   -2.1411757476    3.1871325431
O        3.7317522697   -1.0656086097    3.3441532768
C        3.5284966380   -1.9534940597    4.3764088553
C        3.3504589973   -1.4654513119    5.6753360247
C        3.1857694676   -2.3458525313    6.7514989734
C        3.2079758229   -3.7265700631    6.5286342464
C        3.3992445471   -4.2189895224    5.2331343661
C        3.5644714896   -3.3276900911    4.1652953947
H        3.7277280785   -3.7048505657    3.1604232181
H        3.4268057532   -5.2904924904    5.0560720672
H        3.0843806021   -4.4143178466    7.3603976668
H        3.0470753356   -1.9568112407    7.7563144701
H        3.3449406426   -0.3922115330    5.8374679884
H        4.3025793711    0.0102303684    1.0769314871
H        2.8576743439    0.0800551725   -0.9471557654
23   

H        0.4754974163   -0.7743815543   -0.7655342502
C        1.1652495850   -0.8777426223    0.0672764956
C        2.4429782106   -0.3165655181   -0.0083739517
C        3.3288934189   -0.4514995227    1.0669169995
C        2.9585854615   -1.1442248382    2.2253720320
C        1.6648551883   -1.7000926403    2.2926396749
C        0.7759410443   -1.5691054809    1.2182997834
H       -0.2180067686   -2.0029522498    1.2812214125
H        1.3338823498   -2.2334525500    3.1779038341
O        3.8757342050   -1.2252723265    3.2353812281
C        3.6111686211   -2.0453038132    4.3147343108
C        3.2790778939   -1.4850906097    5.5527136745
C        3.0447370273   -2.3052546229    6.6630696198
C        3.1496617127   -3.6945994285    6.5347350461
C        3.4909468016   -4.2563133862    5.2992150167
C        3.7244232215   -3.4253816130    4.1960240639
H        3.9992321689   -3.8513343504    3.2360626952
H        3.5805780328   -5.3341278417    5.1965876088
H        2.9725525367   -4.3353148923    7.3939421963
H        2.7877697666   -1.8630471944    7.6215461732
H        3.2094615830   -0.4054509421    5.6404503342
H        4.3214105511   -0.0153741390    1.0129407995
H        2.7488869644    0.2247981952   -0.8991732834
23   

H        0.3713204966   -0.5549616301   -0.6209594301
C        1.1029770449   -0.7380379405    0.1608140776
C        2.3970904923   -0.2238787008    0.0427151795
C        3.3370876799   -0.4618340418    1.0522091670
C        3.0049533150   -1.2106859520    2.1871679187
C        1.6959461103   -1.7238469377    2.2950726482
C        0.7524583778   -1.4880608747    1.2872207400
H       -0.2528878888   -1.8886509351    1.3816585702
H        1.3951846038   -2.3089438981    3.1581378172
O        3.9782695267   -1.3977683516    3.1276553912
C        3.6785540785   -2.1466930435    4.2513027010
C        3.1962231549   -1.5258805595    5.4088803022
C        2.9156713517   -2.2821879787    6.5532807567
C        3.1223021172   -3.6661900136    6.5388867065
C        3.6090626130   -4.2866425012    5.3824555722
C        3.8872168239   -3.5196936530    4.2437777416
H        4.2707545638   -3.9897085165    3.3436107293
H        3.7753923648   -5.3601427841    5.3686496741
H        2.9096877838   -4.2571855465    7.4252550083
H        2.5434180990   -1.7947037337    7.4499706331
H        3.0467620326   -0.4507509658    5.4073362223
H        4.3431369706   -0.0639673522    0.9640847195
H        2.6742786691    0.3597711967   -0.8306047515
23   

H        0.3031809809   -0.3234453953   -0.4845104748
C        1.0588277105   -0.5914944541    0.2484022911
C        2.3691326106   -0.1272085835    0.1046760150
C        3.3401262478   -0.4748413778    1.0510428977
C        3.0227494485   -1.2837473147    2.1483461859
C        1.6989794349   -1.7510132602    2.2791569041
C        0.7238947108   -1.4039689424    1.3355973129
H       -0.2930982192   -1.7689735347    1.4478848728
H        1.4132099296   -2.3900210216    3.1084176945
O        4.0279663372   -1.5848024320    3.0238039565
C        3.7159687859   -2.2549633761    4.1912757657
C        3.1096493741   -1.5894651711    5.2639418809
C        2.8144284329   -2.2776690268    6.4468965852
C        3.1299878727   -3.6366651365    6.5568768519
C        3.7391899885   -4.3005506207    5.4855606317
C        4.0306558224   -3.6022743592    4.3066556525
H        4.5068804333   -4.1062059757    3.4714904838
H        3.9891950452   -5.3545089126    5.5687347685
H        2.9061742953   -4.1745059339    7.4738083446
H        2.3460357342   -1.7566687626    7.2772188760
H        2.8757509233   -0.5339132158    5.1664539850
H        4.3592962349   -0.1176297673    0.9419605700
H        2.6351794337    0.5016546847   -0.7402647583
23   

H        0.2672072992   -0.0859773358   -0.3590007224
C        1.0299089172   -0.4434529896    0.3269483001
C        2.3565968303   -0.0305722715    0.1752718099
C        3.3368670631   -0.4937885479    1.0606389921
C        3.0115067205   -1.3667839818    2.1050130952
C        1.6730233494   -1.7856515464    2.2405832612
C        0.6881451763   -1.3221634862    1.3593032462
H       -0.3410245434   -1.6499907132    1.4753040697
H        1.3876970922   -2.4801093631    3.0242450901
O        4.0248871332   -1.7905853656    2.9191154419
C        3.7196318496   -2.3695068053    4.1316745020
C        3.0297260395   -1.6666449820    5.1295006638
C        2.7517172289   -2.2753298564    6.3592492150
C        3.1697864435   -3.5900225226    6.5939742705
C        3.8649336610   -4.2892899174    5.6004228062
C        4.1383463126   -3.6715435848    4.3732425492
H        4.6810233629   -4.2036945665    3.5982986051
H        4.1954086842   -5.3082895664    5.7811496049
H        2.9593198798   -4.0655768008    7.5477408953
H        2.2175044838   -1.7264009431    7.1296674458
H        2.7180397883   -0.6442770830    4.9392140932
H        4.3690974368   -0.1788593162    0.9442835861
H        2.6283042788    0.6468371975   -0.6293916238
23   

H        1.0304128530    0.8944915114   -0.1732978579
C        1.4941329735    0.1092778082    0.4170045165
C        2.5408480261   -0.6451677999   -0.1211179459
C        3.1352942774   -1.6572190077    0.6417658889
C        2.7010783387   -1.9259127364    1.9445568646
C        1.6353132777   -1.1712279598    2.4702054792
C        1.0398724534   -0.1547688602    1.7128618763
H        0.2204189578    0.4236959637    2.1300069717
H        1.2576097630   -1.3786332796    3.4664042026
O        3.3060063750   -2.9466851242    2.6269464225
C        3.3209904533   -2.9387141053    4.0006848041
C        3.6823249976   -1.8050373305    4.7458676918
C        3.7116849273   -1.8578905756    6.1446014862
C        3.3886525776   -3.0497310371    6.8025163941
C        3.0422166740   -4.1846037848    6.0604621212
C        3.0152712848   -4.1228303770    4.6613320655
H        2.7540928848   -5.0001920686    4.0780087215
H        2.7981747498   -5.1137073925    6.5678334486
H        3.4131567008   -3.0959577304    7.8875813581
H        3.9908586580   -0.9773567662    6.7163969140
H        3.9473898239   -0.8873350428    4.2299075039
H        3.9443160272   -2.2500464156    0.2267306279
H        2.8909985099   -0.4497841670   -1.1307881823
23   

H        1.2317758711    1.0191089833   -0.1795476876
C        1.6068552205    0.1912129967    0.4154138032
C        2.6317340917   -0.6197709586   -0.0818429317
C        3.1116623750   -1.6871640048    0.6863947973
C        2.5839042411   -1.9530220646    1.9544509403
C        1.5401649834   -1.1436544530    2.4370900113
C        1.0590169852   -0.0717059441    1.6751185360
H        0.2553044966    0.5501352195    2.0591962010
H        1.0949573625   -1.3559611979    3.4040883451
O        3.0654807191   -3.0317684946    2.6486481109
C        3.1901635170   -2.9839587785    4.0120852973
C        3.5189533749   -1.8166916315    4.7234620453
C        3.6694764424   -1.8548315437    6.1149554998
C        3.5062190347   -3.0631615487    6.8006515304
C        3.2005148328   -4.2307862344    6.0930643435
C        3.0511983298   -4.1851528936    4.7012099328
H        2.8218577866   -5.0887771998    4.1451906138
H        3.0829637999   -5.1728338978    6.6211913916
H        3.6250783543   -3.0965644052    7.8799298774
H        3.9207378400   -0.9489345581    6.6594071014
H        3.6707945224   -0.8818144671    4.1931469261
H        3.9016492848   -2.3253126252    0.3031343908
H        3.0527384104   -0.4257599551   -1.0643658685
23   

H        1.4366521327    1.0991864918   -0.2009853895
C        1.7185601291    0.2431450061    0.4054905671
C        2.7281404209   -0.6210785325   -0.0306891201
C        3.0878654127   -1.7248904873    0.7518261712
C        2.4538250083   -1.9722830756    1.9737522637
C        1.4270570828   -1.1108819067    2.3938466025
C        1.0656186954   -0.0024969614    1.6180329108
H        0.2736240467    0.6609870218    1.9537579130
H        0.9065110194   -1.3142005996    3.3245689988
O        2.8075329865   -3.0883306196    2.6905507563
C        3.0571238299   -3.0120276557    4.0331679502
C        3.3576797527   -1.8232791558    4.7243405193
C        3.6419899147   -1.8545629737    6.0951105525
C        3.6442711253   -3.0739497699    6.7801449388
C        3.3714739754   -4.2605754024    6.0918019267
C        3.0875546439   -4.2232184546    4.7210080187
H        2.8827393272   -5.1419978978    4.1804168863
H        3.3831876407   -5.2108081032    6.6181980914
H        3.8667139287   -3.1005008603    7.8431047869
H        3.8693180258   -0.9330605866    6.6236420942
H        3.3890638419   -0.8730030816    4.2015306554
H        3.8641722719   -2.4052510902    0.4162285329
H        3.2297510023   -0.4401988439   -0.9772166913
23   

H        1.7778095555    1.0581838062   -0.3322960164
C        1.8317651342    0.2272134021    0.3653283037
C        3.0421110813   -0.4472995805    0.5598189767
C        3.1056846227   -1.5224507201    1.4548165485
C        1.9677176010   -1.9201712072    2.1722842090
C        0.7596750578   -1.2485106218    1.9598496924
C        0.6879660765   -0.1757524317    1.0629639598
H       -0.2560167932    0.3386537935    0.9063552153
H       -0.1242850569   -1.5738798468    2.4991732012
O        1.9991053431   -2.9972148859    3.0285252056
C        2.7986722833   -2.9877127000    4.1375143074
C        3.5915938716   -1.9016202022    4.5555606979
C        4.3463217380   -1.9888725985    5.7319825512
C        4.3035020717   -3.1531480823    6.5055851474
C        3.4995237761   -4.2255694338    6.1066280150
C        2.7467850457   -4.1336705204    4.9294901208
H        2.1166310014   -4.9612289911    4.6189966027
H        3.4563243946   -5.1280661563    6.7097756679
H        4.8876438881   -3.2214264975    7.4189138135
H        4.9592087849   -1.1490448558    6.0469912476
H        3.6210213351   -0.9792552917    3.9858139258
H        4.0372571873   -2.0613178516    1.5974011987
H        3.9293613957   -0.1424141790    0.0120704933
