15   

H        2.1271730802   -1.0610750305   -1.2209014094
C        1.9701896291   -1.0475286693   -0.1458266663
C        3.0517428750   -1.2090816229    0.7250384939
C        2.8496089340   -1.1921315220    2.1114825651
C        1.5750277870   -1.0076546219    2.6408534493
C        0.4892325719   -0.8565612511    1.7591072331
C        0.6850929929   -0.8725802088    0.3736033722
H       -0.1620505624   -0.7512102864   -0.2955391455
H       -0.5139330105   -0.7261666326    2.1592565869
C        1.3363210858   -1.0078906867    4.1002309048
O        0.2532050539   -1.1124340541    4.6203452440
O        2.4619738247   -0.8943854690    4.8444933732
H        2.1477988762   -0.9106651727    5.7603514210
H        3.7101017023   -1.3264424951    2.7620969285
H        4.0522054073   -1.3500596463    0.3259772412
15   

H        2.1246497718   -1.0335575636   -1.2187924152
C        1.9683910229   -1.0309816647   -0.1435314194
C        3.0460756027   -1.2339520761    0.7240823011
C        2.8439259868   -1.2315912278    2.1105048385
C        1.5758537613   -1.0141836917    2.6412106212
C        0.4920515616   -0.8312662471    1.7648206768
C        0.6874150797   -0.8324163551    0.3789798777
H       -0.1568485861   -0.6835753365   -0.2882393270
H       -0.5072636536   -0.6894663836    2.1703974422
C        1.3412581693   -1.0533494998    4.1018494937
O        0.3073782575   -1.3862224383    4.6242210238
O        2.4261774804   -0.7149077965    4.8376133599
H        2.1290270651   -0.7915559694    5.7560141209
H        3.6941598878   -1.4007067619    2.7666499521
H        4.0421698785   -1.3970807241    0.3225635128
15   

H        2.1177453657   -1.0080954861   -1.2164917922
C        1.9639258349   -1.0165756366   -0.1409094846
C        3.0381744040   -1.2615940075    0.7207679122
C        2.8382729610   -1.2736887314    2.1073345668
C        1.5785464729   -1.0245832249    2.6418253198
C        0.4961200070   -0.8062762288    1.7737745244
C        0.6889194631   -0.7925997470    0.3874306062
H       -0.1526104224   -0.6144351470   -0.2760277150
H       -0.4980999061   -0.6504517763    2.1861056379
C        1.3535898644   -1.0994205047    4.1052576715
O        0.4186272776   -1.6454773707    4.6319184925
O        2.3541387356   -0.5472937829    4.8298452294
H        2.0880904076   -0.6790149953    5.7514243249
H        3.6787885491   -1.4750773024    2.7669380689
H        4.0284920586   -1.4467003644    0.3145362988
15   

H        2.1067610495   -0.9837240804   -1.2155332915
C        1.9581517509   -1.0062206357   -0.1394208098
C        3.0296496471   -1.2973250095    0.7117955139
C        2.8360243652   -1.3272288295    2.0988935466
C        1.5870257975   -1.0499551465    2.6422064415
C        0.5058422086   -0.7862422530    1.7866922942
C        0.6923849248   -0.7543514188    0.3996201318
H       -0.1466317752   -0.5407508275   -0.2565027759
H       -0.4808919526   -0.6098406055    2.2079199678
C        1.3771931461   -1.1498765936    4.1105319093
O        0.5893773061   -1.8830917488    4.6473898020
O        2.2370629496   -0.3838146344    4.8190321110
H        2.0115222013   -0.5556676306    5.7446685594
H        3.6699132533   -1.5622555850    2.7556344487
H        4.0120835923   -1.5040852058    0.2969636736
15   

H        2.0896333991   -0.9507913498   -1.2157596736
C        1.9514579174   -0.9933130379   -0.1388612048
C        3.0217382656   -1.3390448939    0.6934664770
C        2.8415350846   -1.3943120820    2.0815637010
C        1.6068433651   -1.0943036303    2.6431602318
C        0.5275841468   -0.7671075887    1.8080131103
C        0.7008689759   -0.7096716982    0.4199559198
H       -0.1361614938   -0.4497470255   -0.2218167868
H       -0.4463805919   -0.5603690892    2.2442921541
C        1.4183744819   -1.2028470139    4.1181755102
O        0.8236908824   -2.0837035743    4.6786892923
O        2.0538829614   -0.2230835393    4.7977141517
H        1.8715625426   -0.4127541776    5.7292517176
H        3.6732239374   -1.6688430867    2.7254206372
H        3.9926316486   -1.5674540240    0.2631019472
15   

H        2.0780868457   -0.9098248529   -1.2148586125
C        1.9525835031   -0.9734707153   -0.1374505131
C        3.0178275658   -1.3854872081    0.6707002815
C        2.8537545594   -1.4680159714    2.0594546257
C        1.6377601395   -1.1415041076    2.6452017903
C        0.5679591240   -0.7298469671    1.8353317990
C        0.7247766637   -0.6452633396    0.4467129185
H       -0.1065119080   -0.3263711255   -0.1756232549
H       -0.3858865745   -0.4777538083    2.2914383278
C        1.4730089987   -1.2405544486    4.1258747246
O        1.1012532053   -2.2147593928    4.7218263265
O        1.7928669140   -0.0917312444    4.7602210106
H        1.6470277516   -0.2803551196    5.6983165639
H        3.6824125486   -1.7907054237    2.6845548264
H        3.9726394089   -1.6427917377    0.2210765804
15   

H        2.0619298620   -0.8790482190   -1.2142881944
C        1.9514688406   -0.9557128400   -0.1360816820
C        3.0114371581   -1.4250705196    0.6471003879
C        2.8664447572   -1.5247666222    2.0368281587
C        1.6710777304   -1.1693990617    2.6487218174
C        0.6126025269   -0.6836213425    1.8642058101
C        0.7500734900   -0.5820547721    0.4747118101
H       -0.0749028844   -0.2118172806   -0.1272480367
H       -0.3175963087   -0.3865701929    2.3416231129
C        1.5383119488   -1.2544280516    4.1318157707
O        1.4097146879   -2.2666544531    4.7662480239
O        1.5122984106   -0.0369473758    4.7172102374
H        1.4076207275   -0.2213792391    5.6616663050
H        3.6920747055   -1.8895835603    2.6426973082
H        3.9478262936   -1.7126181858    0.1774791885
15   

H        2.0487277866   -0.8846202422   -1.2172486812
C        1.9501730222   -0.9588589347   -0.1377202644
C        3.0022848284   -1.4686807987    0.6303329391
C        2.8726607065   -1.5653425127    2.0217252364
C        1.6979208442   -1.1710126480    2.6518016138
C        0.6503151027   -0.6382453485    1.8810810127
C        0.7728982739   -0.5398078309    0.4900048789
H       -0.0447280390   -0.1354380878   -0.0998975083
H       -0.2602933363   -0.3018339755    2.3702935312
C        1.5964290045   -1.2427548451    4.1339544843
O        1.7085418184   -2.2410864406    4.7950790157
O        1.2701392157   -0.0543676431    4.6902010342
H        1.2143574547   -0.2363846235    5.6393816283
H        3.6927049058   -1.9612311915    2.6159925466
H        3.9210354850   -1.7898439089    0.1478195079
15   

H        2.0333478686   -0.9131396544   -1.2227799085
C        1.9445721087   -0.9746809270   -0.1416052831
C        2.9880040345   -1.5117230580    0.6193108895
C        2.8713850995   -1.5919213787    2.0127836059
C        1.7174240984   -1.1528007744    2.6543384806
C        0.6776822256   -0.5944722398    1.8881688449
C        0.7885126926   -0.5127329056    0.4950172031
H       -0.0224201707   -0.0880498484   -0.0898369086
H       -0.2191302544   -0.2253055799    2.3794638609
C        1.6441545613   -1.2154775829    4.1344176728
O        1.9849076384   -2.1537229375    4.8074671940
O        1.0718718249   -0.1194500165    4.6837189351
H        1.0709328683   -0.2970541356    5.6354852476
H        3.6854928893   -2.0098011116    2.6006344921
H        3.8902877439   -1.8671371802    0.1297714883
15   

H        2.0177211466   -0.9530389779   -1.2296521045
C        1.9381289098   -0.9963335726   -0.1468787733
C        2.9725887763   -1.5530641083    0.6115626507
C        2.8683765349   -1.6096800419    2.0070876944
C        1.7361895746   -1.1234446828    2.6558132027
C        0.7023967532   -0.5507024268    1.8890972824
C        0.8022456966   -0.4928428261    0.4939287149
H       -0.0027087238   -0.0551403024   -0.0896010718
H       -0.1835736354   -0.1515398916    2.3766153902
C        1.6838699788   -1.1792633719    4.1339537702
O        2.2303402313   -2.0124054923    4.8120087637
O        0.9059701552   -0.2185100755    4.6851730632
H        0.9569415502   -0.3829528419    5.6380315514
H        3.6777040632   -2.0441233401    2.5899184163
H        3.8587783981   -1.9425879980    0.1185776764
15   

H        1.9967622591   -0.9985489692   -1.2355066834
C        1.9271954945   -1.0218995384   -0.1514282952
C        2.9532646010   -1.5945606628    0.6058808557
C        2.8626774277   -1.6251127168    2.0031200482
C        1.7537231703   -1.0925346466    2.6572694761
C        0.7245633967   -0.5100199062    1.8889142435
C        0.8119450955   -0.4783035593    0.4920856332
H        0.0122837462   -0.0302808600   -0.0909041328
H       -0.1498630535   -0.0810761429    2.3718313421
C        1.7167859944   -1.1395533839    4.1348693982
O        2.4373567390   -1.8226228019    4.8195694351
O        0.7649297109   -0.3497088907    4.6851517758
H        0.8588266521   -0.4875783528    5.6390246000
H        3.6683853044   -2.0734524588    2.5805920094
H        3.8229864612   -2.0170558489    0.1107122795
15   

H        1.9716836771   -1.0475021075   -1.2388640014
C        1.9132132638   -1.0499016638   -0.1538816221
C        2.9316319248   -1.6363232592    0.6029275401
C        2.8559176633   -1.6392787990    2.0013721641
C        1.7711758701   -1.0614683951    2.6583320889
C        0.7462427912   -0.4710202526    1.8892632664
C        0.8193501641   -0.4666600799    0.4912754710
H        0.0247345678   -0.0093777021   -0.0914311643
H       -0.1134980550   -0.0118417584    2.3706635463
C        1.7452535820   -1.0947464362    4.1362315885
O        2.6010901807   -1.5895811598    4.8276185173
O        0.6531705767   -0.5093031865    4.6816360805
H        0.7779857250   -0.6089902964    5.6367401889
H        3.6566943458   -2.0997823407    2.5761517985
H        3.7841533273   -2.0910887407    0.1064277875
15   

H        1.9428083008   -1.0963256584   -1.2386207471
C        1.8962408675   -1.0779957335   -0.1532147288
C        2.9074102169   -1.6776607049    0.6032335708
C        2.8472829559   -1.6530115717    2.0022310415
C        1.7877701653   -1.0308317694    2.6592356365
C        0.7669195905   -0.4332572630    1.8913605472
C        0.8243410722   -0.4558360388    0.4928024788
H        0.0346414436    0.0102412729   -0.0896115665
H       -0.0752428408    0.0541585481    2.3761404475
C        1.7680236527   -1.0466950957    4.1378279895
O        2.7114770644   -1.3258307833    4.8353945750
O        0.5776520929   -0.6891141796    4.6743416103
H        0.7186139264   -0.7416866482    5.6309313284
H        3.6406253011   -2.1237621951    2.5789886511
H        3.7419410919   -2.1639323157    0.1060330505
15   

H        1.9153641675   -1.1385415135   -1.2355604920
C        1.8803414815   -1.1010623736   -0.1502143901
C        2.8824904805   -1.7163503672    0.6063617967
C        2.8371716160   -1.6662333475    2.0052864486
C        1.8045831785   -0.9994947031    2.6597614547
C        0.7894776513   -0.3928851709    1.8941242967
C        0.8314074574   -0.4399927592    0.4956123548
H        0.0476223755    0.0360753390   -0.0866953344
H       -0.0337932675    0.1199082698    2.3852617935
C        1.7840533419   -0.9976994261    4.1397371598
O        2.7616547916   -1.0494982360    4.8426783265
O        0.5419985800   -0.8781398285    4.6641637173
H        0.6825483891   -0.8802391167    5.6221930210
H        3.6205536978   -2.1476979974    2.5866193810
H        3.6978777157   -2.2341901921    0.1092897078
15   

H        1.8897880767   -1.1733115853   -1.2310666794
C        1.8653331866   -1.1182843440   -0.1461791284
C        2.8555593308   -1.7517524301    0.6116652693
C        2.8236111673   -1.6785019759    2.0100256110
C        1.8194261163   -0.9679417384    2.6602269800
C        0.8133161922   -0.3486611229    1.8959990817
C        0.8408643983   -0.4178538183    0.4980399664
H        0.0649309435    0.0702595936   -0.0847933773
H        0.0095153761    0.1890712854    2.3926635068
C        1.7934632355   -0.9448832003    4.1430370010
O        2.7502839752   -0.7666230362    4.8516483970
O        0.5468174099   -1.0710113232    4.6534111077
H        0.6708248588   -1.0221740382    5.6123898834
H        3.5954068446   -2.1730649268    2.5954336242
H        3.6506066047   -2.3015119655    0.1159353020
15   

H        1.8737385308   -1.2017561047   -1.2273500735
C        1.8548434430   -1.1316266017   -0.1432233002
C        2.8264982773   -1.7872614400    0.6201855912
C        2.8015836751   -1.6941567534    2.0176222523
C        1.8244835839   -0.9416422295    2.6591073548
C        0.8359082864   -0.3018934632    1.8917942047
C        0.8555564236   -0.3900063205    0.4947761474
H        0.0933592334    0.1148182301   -0.0919266036
H        0.0524914818    0.2650288050    2.3883488149
C        1.7910699962   -0.8900048866    4.1451899715
O        2.6770102737   -0.4859195492    4.8509845332
O        0.5974143170   -1.2735544289    4.6513670871
H        0.6959589104   -1.1758832791    5.6094562785
H        3.5577840878   -2.2057502107    2.6082042034
H        3.6011891743   -2.3695057219    0.1293563580
15   

H        1.8759931707   -1.2160240609   -1.2250214368
C        1.8528316897   -1.1344747769   -0.1417755523
C        2.7940651814   -1.8190167913    0.6345525737
C        2.7635605273   -1.7112254378    2.0308891714
C        1.8088804705   -0.9196584023    2.6566764989
C        0.8545991744   -0.2450489959    1.8781750397
C        0.8795031858   -0.3474887352    0.4821831003
H        0.1425622058    0.1822962398   -0.1146949024
H        0.0943199055    0.3599492690    2.3654009409
C        1.7699864762   -0.8345619914    4.1451889787
O        2.5399579867   -0.2183024690    4.8314923067
O        0.7111675408   -1.4888448679    4.6709636193
H        0.7857916901   -1.3483255279    5.6257700618
H        3.4961626975   -2.2446375677    2.6313882949
H        3.5494037391   -2.4346843594    0.1544802301
15   

H        1.9106465169   -1.2132796590   -1.2245240947
C        1.8684754562   -1.1259017273   -0.1423056332
C        2.7633788999   -1.8466282247    0.6560121892
C        2.7082077333   -1.7317931572    2.0510529156
C        1.7676188039   -0.9061614372    2.6526979286
C        0.8706339888   -0.1813077198    1.8528038289
C        0.9201931761   -0.2911093223    0.4579934389
H        0.2238369063    0.2723221388   -0.1565536974
H        0.1363161061    0.4686379455    2.3215826956
C        1.7235761227   -0.7864501195    4.1403386036
O        2.3327034541    0.0170083868    4.7929140153
O        0.9060196414   -1.6989718412    4.7090253123
H        0.9623961592   -1.5211176585    5.6587941643
H        3.4062956573   -2.2911159607    2.6686159173
H        3.5024427859   -2.4949348125    0.1939343890
15   

H        1.9514617402   -1.2012021976   -1.2237355070
C        1.8846861439   -1.1143252414   -0.1427154875
C        2.7255931632   -1.8757526157    0.6763716198
C        2.6387882206   -1.7617532588    2.0698602660
C        1.7112776663   -0.9050374246    2.6491887030
C        0.8813247239   -0.1260211408    1.8284328846
C        0.9626039189   -0.2353279819    0.4350646718
H        0.3135545730    0.3652767670   -0.1958568227
H        0.1751458569    0.5660284072    2.2801699252
C        1.6627576143   -0.7599503163    4.1322825295
O        2.0749834754    0.1840236460    4.7509227253
O        1.1553145640   -1.8515669192    4.7458418276
H        1.1932878471   -1.6419973387    5.6900963165
H        3.2972782712   -2.3501739625    2.7037193250
H        3.4482926479   -2.5539658752    0.2316800976
15   

H        1.9884325384   -1.1981723186   -1.2223636247
C        1.8991831938   -1.1130903446   -0.1428246013
C        2.6940529409   -1.9055306686    0.6924233737
C        2.5786730363   -1.7936296870    2.0840381168
C        1.6632396550   -0.9118325715    2.6466059170
C        0.8864726983   -0.0964223819    1.8086643001
C        0.9963932071   -0.2033946863    0.4171691324
H        0.3858297426    0.4242339741   -0.2257663432
H        0.1995307210    0.6232955858    2.2471974985
C        1.5962129775   -0.7529458054    4.1231748595
O        1.7812220763    0.2768979128    4.7161909590
O        1.3883499181   -1.9219453651    4.7700384748
H        1.3883600050   -1.6850308835    5.7086951970
H        3.2045959271   -2.4055551673    2.7287741949
H        3.4041912446   -2.6057748387    0.2618732795
15   

H        2.0149213158   -1.1944449336   -1.2224271483
C        1.9110576599   -1.1123896441   -0.1439611407
C        2.6681553770   -1.9321837155    0.6994087004
C        2.5343863698   -1.8244260447    2.0897928548
C        1.6372779206   -0.9181442789    2.6452156359
C        0.8985684563   -0.0769154813    1.7970060245
C        1.0272049857   -0.1795220490    0.4069583011
H        0.4454532889    0.4694412076   -0.2415043216
H        0.2252664175    0.6605116419    2.2278621968
C        1.5411089085   -0.7595789055    4.1160822823
O        1.4896697931    0.2955813614    4.6937461185
O        1.5887203451   -1.9344694642    4.7856600918
H        1.5333018689   -1.6844647852    5.7193981014
H        3.1353325192   -2.4599886808    2.7355671600
H        3.3639639318   -2.6510317684    0.2761765251
15   

H        2.0401901467   -1.1866239519   -1.2236677488
C        1.9256877804   -1.1083728950   -0.1459963596
C        2.6489147071   -1.9537308219    0.7011561759
C        2.5017305012   -1.8517560583    2.0907516065
C        1.6270662862   -0.9213713044    2.6441669162
C        0.9177630268   -0.0597453271    1.7893951051
C        1.0602872906   -0.1566561239    0.4005041502
H        0.5019662506    0.5104018571   -0.2502089366
H        0.2537796566    0.6897797477    2.2143290493
C        1.4956755607   -0.7734985858    4.1107632085
O        1.2113619973    0.2520745689    4.6764041840
O        1.7686384527   -1.9065735227    4.7996562602
H        1.6501558022   -1.6594207045    5.7283707569
H        3.0806738552   -2.5125344471    2.7312363254
H        3.3291000965   -2.6893841990    0.2814014346
15   

H        2.0648543069   -1.1740149584   -1.2244986732
C        1.9406965173   -1.1009786078   -0.1475290605
C        2.6308885991   -1.9717997652    0.7007446736
C        2.4713793375   -1.8776009104    2.0896492677
C        1.6211153547   -0.9241296484    2.6435138879
C        0.9377947536   -0.0436270354    1.7850006944
C        1.0931442858   -0.1330639543    0.3971583295
H        0.5565606162    0.5511370802   -0.2540570580
H        0.2815442617    0.7154853154    2.2051758638
C        1.4546566499   -0.7934309211    4.1070616868
O        0.9511186087    0.1524007142    4.6606327138
O        1.9392712224   -1.8416860526    4.8143198178
H        1.7607420512   -1.6121339352    5.7380081072
H        3.0265240077   -2.5652977324    2.7226372358
H        3.2946140327   -2.7230498497    0.2822451795
15   

H        2.0869131229   -1.1573569987   -1.2238972032
C        1.9531976475   -1.0915838772   -0.1476030411
C        2.6109761863   -1.9883131784    0.6991181582
C        2.4389648236   -1.9040534453    2.0872114912
C        1.6135344168   -0.9298471498    2.6431869150
C        0.9544076451   -0.0303194251    1.7846256752
C        1.1225169843   -0.1098427957    0.3977283287
H        0.6071068433    0.5915442036   -0.2523109560
H        0.3061435391    0.7364524414    2.2033545122
C        1.4158270656   -0.8205743991    4.1043664813
O        0.7150869652    0.0001981621    4.6434598662
O        2.0995468797   -1.7382239116    4.8286323115
H        1.8698879611   -1.5386220063    5.7479960452
H        2.9660071097   -2.6178584879    2.7151962441
H        3.2580457738   -2.7535750631    0.2799109645
