15   

H        1.8844939822   -1.1974164146   -1.1372586535
C        1.8989343160   -1.1491096687   -0.0516465281
C        2.9606391197   -1.7132758234    0.6606496753
C        2.9827137886   -1.6488073349    2.0589101437
C        1.9377031518   -1.0273764249    2.7676380358
C        0.8787669763   -0.4514124053    2.0340833622
C        0.8609412102   -0.5150125811    0.6357978877
H        0.0425737804   -0.0641695015    0.0808484636
H        0.0688492894    0.0724069424    2.5336851183
C        1.9680883683   -0.9741836753    4.2380957310
O        2.9986688411   -1.1458666493    4.8281181973
O        0.8176975165   -0.7689074310    4.9117198680
H        0.0392111191   -0.8750488027    4.3499162352
H        3.8160687330   -2.0885440875    2.6033594323
H        3.7727420956   -2.2015647085    0.1292356174
15   

H        1.8836851697   -1.2630030195   -1.1392458154
C        1.8975238656   -1.2018946407   -0.0542867726
C        2.9496738302   -1.7733215731    0.6666848393
C        2.9716438615   -1.6911667888    2.0642098755
C        1.9362487891   -1.0429459448    2.7629973992
C        0.8870071446   -0.4610362859    2.0206387630
C        0.8686004295   -0.5432240987    0.6235236888
H        0.0576367303   -0.0865664453    0.0625013200
H        0.0863571726    0.0823182867    2.5150120035
C        1.9669687079   -0.9570535557    4.2318023284
O        2.9799005709   -1.1865343014    4.8318113293
O        0.8201727735   -0.6788308861    4.8963827097
H        0.0378198781   -0.9607343381    4.4072733019
H        3.7987937833   -2.1346257468    2.6149746725
H        3.7551829692   -2.2796878873    0.1422552171
15   

H        1.8958596360   -1.3125145325   -1.1453672786
C        1.9057502219   -1.2419802490   -0.0609629402
C        2.9499905871   -1.8156547907    0.6699205953
C        2.9671871150   -1.7205119961    2.0668754930
C        1.9351450145   -1.0554333911    2.7547945934
C        0.8935624538   -0.4730702510    2.0023514258
C        0.8794384780   -0.5687261085    0.6062298334
H        0.0740255300   -0.1107412447    0.0383720831
H        0.0955345892    0.0802622332    2.4903463887
C        1.9609905227   -0.9456727612    4.2222483695
O        2.9519553600   -1.2277853219    4.8353878664
O        0.8187513595   -0.5924102168    4.8733903761
H        0.0425735843   -1.0278828458    4.5047395272
H        3.7891231427   -2.1644697816    2.6248721147
H        3.7535408256   -2.3330100843    0.1533484241
15   

H        1.9219770927   -1.3338993767   -1.1566112374
C        1.9244011700   -1.2605607068   -0.0723837371
C        2.9607619238   -1.8366106487    0.6679739283
C        2.9681707752   -1.7376132636    2.0649081709
C        1.9345592954   -1.0648667311    2.7430500475
C        0.9004998457   -0.4818422828    1.9810004565
C        0.8957348683   -0.5817040246    0.5852594357
H        0.0953871302   -0.1228629989    0.0110265734
H        0.0999328100    0.0732093984    2.4631319181
C        1.9493342915   -0.9460609383    4.2102323805
O        2.9158055587   -1.2749738308    4.8379288803
O        0.8161862423   -0.5120029357    4.8460307092
H        0.0570692655   -1.0667189309    4.6424410287
H        3.7844041752   -2.1829948568    2.6299470285
H        3.7659096046   -2.3585150370    0.1586060862
15   

H        1.9614674306   -1.3224322180   -1.1733845180
C        1.9526764058   -1.2536150085   -0.0889327661
C        2.9803903137   -1.8339489637    0.6601890021
C        2.9726577987   -1.7413170063    2.0576727545
C        1.9329519240   -1.0694435687    2.7274523115
C        0.9072873857   -0.4834490354    1.9565352533
C        0.9172698080   -0.5772489388    0.5605012296
H        0.1222383212   -0.1165820524   -0.0195438712
H        0.0997746396    0.0659301876    2.4336884129
C        1.9291469593   -0.9584922434    4.1957048625
O        2.8728577852   -1.3252648400    4.8365564315
O        0.8133844471   -0.4410311361    4.8144917730
H        0.0849205742   -1.0676986832    4.8165559905
H        3.7819624567   -2.1905987913    2.6293885308
H        3.7902815581   -2.3545967343    0.1571910779
15   

H        2.0124669729   -1.2864539846   -1.1912271819
C        1.9887864223   -1.2287722317   -0.1063872490
C        3.0061249827   -1.8165193591    0.6511118712
C        2.9781782618   -1.7393795547    2.0493691270
C        1.9290795968   -1.0744287427    2.7116014006
C        0.9136954812   -0.4819024972    1.9320994889
C        0.9434586823   -0.5606415099    0.5354811338
H        0.1548934045   -0.0960712030   -0.0501666716
H        0.0962602122    0.0568991607    2.4044465428
C        1.8997871122   -0.9847514010    4.1816005266
O        2.8238530391   -1.3846174627    4.8327035659
O        0.8135777641   -0.3840208727    4.7813433930
H        0.1343895329   -1.0226726858    5.0130015120
H        3.7788356722   -2.1957259823    2.6274547054
H        3.8231074370   -2.3317157451    0.1541019001
15   

H        2.0645139191   -1.2497736341   -1.2060707158
C        2.0244692680   -1.2045252195   -0.1211555675
C        3.0313998788   -1.7988495490    0.6450789181
C        2.9814400939   -1.7388602354    2.0436465041
C        1.9210714443   -1.0834115846    2.6976822440
C        0.9160119234   -0.4850712891    1.9090842334
C        0.9674127097   -0.5470972021    0.5123176120
H        0.1854332949   -0.0791741674   -0.0793919848
H        0.0874446133    0.0417497523    2.3755824346
C        1.8644648008   -1.0160943889    4.1688027370
O        2.7728100942   -1.4446641856    4.8270544181
O        0.8118864082   -0.3497796604    4.7476219735
H        0.2118289264   -0.9483311713    5.2015783603
H        3.7735263824   -2.2016466845    2.6282140755
H        3.8568936779   -2.3066674754    0.1546779627
15   

H        2.1054542100   -1.2293027632   -1.2160889271
C        2.0505415117   -1.1935886367   -0.1314942740
C        3.0484517020   -1.7918462551    0.6434470734
C        2.9786961799   -1.7449453860    2.0417405271
C        1.9079318567   -1.0974785003    2.6870002101
C        0.9117433314   -0.4959995396    1.8893556269
C        0.9825168156   -0.5455112327    0.4929977811
H        0.2062885760   -0.0760356500   -0.1049748569
H        0.0733066057    0.0209198549    2.3493630426
C        1.8283881370   -1.0446122746    4.1582436765
O        2.7179718929   -1.5063816611    4.8231421996
O        0.8069430448   -0.3321011349    4.7179690519
H        0.3143682362   -0.8555188143    5.3592646619
H        3.7635726189   -2.2116223827    2.6327608960
H        3.8820130182   -2.2930758122    0.1600401029
15   

H        2.1394940312   -1.2160349382   -1.2221951913
C        2.0722254986   -1.1858778593   -0.1381438410
C        3.0670478250   -1.7782091890    0.6453543241
C        2.9811047606   -1.7386473775    2.0430448969
C        1.8969680187   -1.1044803510    2.6790749686
C        0.9035498959   -0.5098699911    1.8727668967
C        0.9906860683   -0.5516291329    0.4771412628
H        0.2160819013   -0.0875679477   -0.1271102756
H        0.0537445475   -0.0056883046    2.3261889693
C        1.7990648920   -1.0595077510    4.1496555281
O        2.6824298442   -1.5240885205    4.8235997111
O        0.7732368745   -0.3583201056    4.6950982431
H        0.4261107457   -0.8002211738    5.4800723659
H        3.7633087933   -2.2011820825    2.6407210067
H        3.9105089722   -2.2694952935    0.1690194412
15   

H        2.1597485523   -1.2033777980   -1.2262395274
C        2.0832551296   -1.1788064559   -0.1426678175
C        3.0755035296   -1.7680893741    0.6464290757
C        2.9774368279   -1.7359610474    2.0435416543
C        1.8837114633   -1.1121645026    2.6732722015
C        0.8925920407   -0.5213303744    1.8614179392
C        0.9918712527   -0.5555137429    0.4664149417
H        0.2186313703   -0.0946583307   -0.1420062620
H        0.0346059324   -0.0271783198    2.3106037466
C        1.7732870249   -1.0739648113    4.1431193128
O        2.6438235577   -1.5544947917    4.8245015410
O        0.7398915337   -0.3917709077    4.6809002893
H        0.5372040601   -0.7272520831    5.5655056809
H        3.7573418176   -2.1965292673    2.6456599416
H        3.9261346324   -2.2515400221    0.1748760666
15   

H        2.1789432672   -1.1891610914   -1.2286857054
C        2.0951961451   -1.1693579506   -0.1455579777
C        3.0879531772   -1.7519799117    0.6479100985
C        2.9803063088   -1.7262446911    2.0444750015
C        1.8762492981   -1.1158341556    2.6690326758
C        0.8843685206   -0.5322696855    1.8529575885
C        0.9934318942   -0.5596090933    0.4585595734
H        0.2193022656   -0.1046342532   -0.1531420279
H        0.0177624552   -0.0501243916    2.2987512454
C        1.7556122556   -1.0841983111    4.1380086188
O        2.6168413565   -1.5725990153    4.8267423208
O        0.6983528723   -0.4453050078    4.6712337923
H        0.6316876847   -0.6531752277    5.6154516743
H        3.7600858940   -2.1822076838    2.6502158009
H        3.9460948470   -2.2257180375    0.1801388832
15   

H        2.1947093382   -1.1718835557   -1.2287385116
C        2.1059432126   -1.1574054522   -0.1459279983
C        3.1015682441   -1.7322140683    0.6496834871
C        2.9872629940   -1.7136296837    2.0458506602
C        1.8733528789   -1.1187092015    2.6677265070
C        0.8783352946   -0.5435164651    1.8495569789
C        0.9943546337   -0.5631265349    0.4556079226
H        0.2175712648   -0.1149022520   -0.1577146487
H        0.0034071139   -0.0748168365    2.2934743230
C        1.7453914501   -1.0948628721    4.1361247707
O        2.6008503096   -1.5892390423    4.8282279659
O        0.6573532767   -0.5109993448    4.6661296362
H        0.6999540803   -0.5653297355    5.6333404788
H        3.7687562426   -2.1642675608    2.6533532119
H        3.9667851653   -2.1948491610    0.1838446763
15   

H        2.2009552313   -1.1492675674   -1.2274152324
C        2.1103645102   -1.1418662713   -0.1446825960
C        3.1111849345   -1.7098751159    0.6492511844
C        2.9943868136   -1.7007236544    2.0452877494
C        1.8725075839   -1.1226109898    2.6688164360
C        0.8719670436   -0.5547403324    1.8522411616
C        0.9908168456   -0.5643450313    0.4584081027
H        0.2096521505   -0.1221196857   -0.1536998110
H       -0.0099826586   -0.1004010478    2.2971486828
C        1.7418442730   -1.1091455964    4.1372136933
O        2.5956126918   -1.6110677238    4.8255151724
O        0.6233657383   -0.5811850372    4.6669061589
H        0.7381070498   -0.4603452269    5.6215966941
H        3.7795612047   -2.1469098530    2.6513400749
H        3.9821040930   -2.1604575134    0.1822178085
15   

H        2.2026698035   -1.1255922334   -1.2237607992
C        2.1119080560   -1.1268784424   -0.1410127707
C        3.1182170406   -1.6906791895    0.6488961350
C        3.0011136253   -1.6930498846    2.0449097570
C        1.8732814082   -1.1310640826    2.6726711124
C        0.8668763933   -0.5679321468    1.8599340940
C        0.9863064324   -0.5655974875    0.4660943414
H        0.2005486197   -0.1274284359   -0.1430497578
H       -0.0207228245   -0.1274469333    2.3074100462
C        1.7424952170   -1.1297652323    4.1413428617
O        2.5948125588   -1.6433128635    4.8216728059
O        0.5999815756   -0.6453155250    4.6728259354
H        0.7516274357   -0.3386777537    5.5778857632
H        3.7903543054   -2.1366988777    2.6475672254
H        3.9934481955   -2.1295479151    0.1787634814
15   

H        2.2024604855   -1.1019379295   -1.2185605729
C        2.1118822187   -1.1140198025   -0.1358549628
C        3.1222813243   -1.6781191880    0.6485446950
C        3.0053419332   -1.6947251177    2.0444457427
C        1.8736961430   -1.1466537252    2.6777307625
C        0.8627342193   -0.5838399851    1.8704076867
C        0.9821105433   -0.5671774757    0.4766433404
H        0.1928105874   -0.1297509886   -0.1284582901
H       -0.0290879408   -0.1558012234    2.3214021837
C        1.7438414781   -1.1595802722    4.1464666813
O        2.5896860048   -1.6921495693    4.8182448066
O        0.5891282398   -0.6919400859    4.6844710685
H        0.7563898927   -0.2017431636    5.4991409894
H        3.7975825886   -2.1390684493    2.6427031843
H        4.0004348472   -2.1065358281    0.1742143947
15   

H        2.1953456632   -1.0663955611   -1.2108997341
C        2.1066500090   -1.0919038481   -0.1282553441
C        3.1239458827   -1.6550281290    0.6478059757
C        3.0094265570   -1.6892495318    2.0435152289
C        1.8734176598   -1.1600227399    2.6850075670
C        0.8549287033   -0.5989593971    1.8860747770
C        0.9721453354   -0.5643055344    0.4923980177
H        0.1772261164   -0.1287040698   -0.1066542990
H       -0.0417773556   -0.1876393617    2.3427177179
C        1.7466703787   -1.1927006338    4.1535260743
O        2.5937320746   -1.7315294789    4.8159687824
O        0.5843146081   -0.7355471359    4.7051185344
H        0.7467312763   -0.0720023406    5.3842247046
H        3.8067811369   -2.1333117526    2.6352566714
H        4.0054177841   -2.0694311737    0.1671655221
15   

H        2.1905443746   -1.0213879365   -1.1987932788
C        2.1017141589   -1.0645497736   -0.1166943327
C        3.1207388603   -1.6369533112    0.6502404068
C        3.0057114659   -1.6948809993    2.0450519330
C        1.8682597672   -1.1791275204    2.6946357425
C        0.8474407271   -0.6093509873    1.9051259407
C        0.9649100021   -0.5516459512    0.5121732172
H        0.1680613519   -0.1106724634   -0.0803963114
H       -0.0525485827   -0.2119663046    2.3674996521
C        1.7415377547   -1.2388741136    4.1617086621
O        2.5707483659   -1.8108536126    4.8153960276
O        0.6010843426   -0.7318112742    4.7354542568
H        0.7746778590    0.0717176422    5.2340679807
H        3.8038027801   -2.1467821881    2.6299679841
H        4.0036679837   -2.0406829488    0.1631565357
15   

H        2.1933730428   -0.9585885592   -1.1807870996
C        2.1027665729   -1.0221967716   -0.0998106517
C        3.1220178287   -1.6064782534    0.6577983371
C        3.0042468615   -1.6921270172    2.0508701584
C        1.8645581830   -1.1913518773    2.7078733142
C        0.8429025070   -0.6101907557    1.9280100863
C        0.9629500135   -0.5253074988    0.5366036184
H        0.1652597697   -0.0772738088   -0.0495705729
H       -0.0614300397   -0.2288727689    2.3953415423
C        1.7335388424   -1.2860344471    4.1719997394
O        2.5470548902   -1.8862473052    4.8167177345
O        0.6300298214   -0.7166576198    4.7707461311
H        0.8013009899    0.1859379278    5.0515046476
H        3.8016402020   -2.1543893302    2.6287669575
H        4.0068186296   -1.9987678669    0.1647030456
15   

H        2.1960991894   -0.8972107737   -1.1598424882
C        2.1040363412   -0.9793077685   -0.0801975473
C        3.1227889809   -1.5758822462    0.6684069683
C        3.0027312006   -1.6868183174    2.0594068224
C        1.8619946436   -1.1980437491    2.7233544421
C        0.8401371719   -0.6051496456    1.9526570365
C        0.9623439626   -0.4955643742    0.5631011339
H        0.1643476288   -0.0402707320   -0.0171151341
H       -0.0679755105   -0.2380883064    2.4240027462
C        1.7266404034   -1.3255009760    4.1840133022
O        2.5229630600   -1.9593881536    4.8163580767
O        0.6772146513   -0.6878127990    4.8066287795
H        0.8182109921    0.2612737249    4.8588856084
H        3.7989432248   -2.1598280811    2.6303667725
H        4.0085786126   -1.9589787469    0.1697902486
15   

H        2.1842744574   -0.8585610647   -1.1414697672
C        2.0943811213   -0.9525290795   -0.0625708297
C        3.1143707523   -1.5582460279    0.6768441738
C        2.9970286239   -1.6853344521    2.0665779998
C        1.8585737326   -1.2025977649    2.7386664945
C        0.8344995650   -0.6014795056    1.9771902942
C        0.9539522309   -0.4762220018    0.5886192166
H        0.1545001188   -0.0157599869    0.0144362996
H       -0.0748415196   -0.2435598277    2.4530396708
C        1.7265273604   -1.3498802070    4.1973750642
O        2.5033872645   -2.0224477502    4.8141403649
O        0.7378355067   -0.6540096401    4.8415042669
H        0.8071218129    0.2927487769    4.6857321843
H        3.7938280948   -2.1659352077    2.6304965550
H        3.9988681763   -1.9363436985    0.1720580469
15   

H        2.1519573908   -0.8483941952   -1.1305821566
C        2.0684099210   -0.9471962065   -0.0515716524
C        3.0908386018   -1.5603989692    0.6780536743
C        2.9819708345   -1.6937205493    2.0677313548
C        1.8505796504   -1.2086914131    2.7499145307
C        0.8228048119   -0.6013056758    1.9982674953
C        0.9337232931   -0.4703490255    0.6093641487
H        0.1321294783   -0.0054436161    0.0417261488
H       -0.0838801945   -0.2448918353    2.4799892395
C        1.7320711998   -1.3605416134    4.2090352845
O        2.4827789562   -2.0780719343    4.8083070248
O        0.8064597221   -0.6146808271    4.8726823357
H        0.7703691066    0.2911116053    4.5467541279
H        3.7807886328   -2.1795747201    2.6243941108
H        3.9708267299   -1.9392265531    0.1658946630
15   

H        2.1034409461   -0.8647412235   -1.1265598869
C        2.0299530918   -0.9618935711   -0.0466419155
C        3.0549683139   -1.5824960473    0.6727638854
C        2.9596113003   -1.7129715254    2.0635160165
C        1.8403895792   -1.2166689148    2.7574639193
C        0.8086405584   -0.6030581420    2.0161144996
C        0.9059156516   -0.4755973565    0.6256773404
H        0.1022984674   -0.0056261945    0.0650785923
H       -0.0911800584   -0.2394299997    2.5047625454
C        1.7446223341   -1.3600076061    4.2189671693
O        2.4629092781   -2.1234719283    4.8019672369
O        0.8796570551   -0.5710231832    4.8998162704
H        0.7137027303    0.2641688277    4.4462888539
H        3.7609835926   -2.2031467108    2.6127932137
H        3.9269234154   -1.9684429418    0.1521704329
15   

H        2.0483821016   -0.9004180557   -1.1277963213
C        1.9860182634   -0.9912998333   -0.0466177898
C        3.0102263674   -1.6234188105    0.6635158962
C        2.9298547965   -1.7446087954    2.0558625904
C        1.8278809515   -1.2264098080    2.7613001469
C        0.7957493576   -0.6018703912    2.0292908013
C        0.8776545659   -0.4847329313    0.6367624089
H        0.0748395578   -0.0057060519    0.0827092380
H       -0.0926434139   -0.2202696770    2.5243609702
C        1.7595309640   -1.3521489483    4.2260582469
O        2.4386431647   -2.1607922615    4.7957947108
O        0.9540667574   -0.5217591351    4.9195930511
H        0.6435555903    0.2202057428    4.3848023805
H        3.7315605447   -2.2417013338    2.5984865769
H        3.8706065854   -2.0242166656    0.1348901916
15   

H        1.9917977898   -0.9392949479   -1.1330649383
C        1.9428091098   -1.0198699041   -0.0503764331
C        2.9616872957   -1.6704029942    0.6501079327
C        2.8991548363   -1.7770408507    2.0443380345
C        1.8214304530   -1.2257578313    2.7626953303
C        0.7944334328   -0.5812705805    2.0399380163
C        0.8580599158   -0.4798275375    0.6450006400
H        0.0601728191    0.0153259314    0.0980749323
H       -0.0754953754   -0.1674587963    2.5406468318
C        1.7842871622   -1.3319355372    4.2312349782
O        2.4463606446   -2.1623385220    4.7902618717
O        1.0071228433   -0.4880721497    4.9361936299
H        0.5258446077    0.1308077647    4.3713537733
H        3.6984625131   -2.2865952550    2.5789397738
H        3.8049753383   -2.0954976415    0.1129563218
