15   

H        2.1271730639   -1.0610751118   -1.2209014072
C        1.9701896196   -1.0475287229   -0.1458266639
C        3.0517428720   -1.2090816446    0.7250384954
C        2.8496089340   -1.1921315220    2.1114825651
C        1.5750277870   -1.0076546219    2.6408534493
C        0.4892325690   -0.8565612718    1.7591072346
C        0.6850929822   -0.8725802588    0.3736033728
H       -0.1620505780   -0.7512103573   -0.2955391457
H       -0.5139330075   -0.7261666492    2.1592565998
C        1.3363210858   -1.0078906867    4.1002309048
O        0.2532050539   -1.1124340541    4.6203452440
O        2.4619738204   -0.8943854748    4.8444933772
H        2.1477988575   -0.9106651714    5.7603514212
H        3.7101017031   -1.3264424774    2.7620969310
H        4.0522054098   -1.3500596610    0.3259772501
15   

H        2.1246498555   -1.0335571838   -1.2187924132
C        1.9683910777   -1.0309814090   -0.1435314204
C        3.0460756311   -1.2339519436    0.7240823038
C        2.8439259868   -1.2315912278    2.1105048385
C        1.5758537613   -1.0141836917    2.6412106212
C        0.4920515810   -0.8312661643    1.7648206714
C        0.6874151256   -0.8324161388    0.3789798735
H       -0.1568485234   -0.6835750289   -0.2882393318
H       -0.5072636325   -0.6894663047    2.1703974381
C        1.3412581693   -1.0533494998    4.1018494937
O        0.3073782575   -1.3862224383    4.6242210238
O        2.4261774776   -0.7149077832    4.8376133575
H        2.1290270491   -0.7915559044    5.7560141186
H        3.6941598733   -1.4007068297    2.7666499535
H        4.0421699120   -1.3970805693    0.3225635213
15   

H        2.1177453128   -1.0080956322   -1.2164917976
C        1.9639257991   -1.0165757406   -0.1409094885
C        3.0381743843   -1.2615940669    0.7207679071
C        2.8382729610   -1.2736887314    2.1073345668
C        1.5785464729   -1.0245832249    2.6418253198
C        0.4961199924   -0.8062762775    1.7737745311
C        0.6889194296   -0.7925998417    0.3874306110
H       -0.1526104689   -0.6144352714   -0.2760277005
H       -0.4980999182   -0.6504518406    2.1861056546
C        1.3535898644   -1.0994205047    4.1052576715
O        0.4186272776   -1.6454773707    4.6319184925
O        2.3541387439   -0.5472937990    4.8298452331
H        2.0880903966   -0.6790149725    5.7514243293
H        3.6787885575   -1.4750772735    2.7669380671
H        4.0284920315   -1.4467004491    0.3145362908
15   

H        2.1067610078   -0.9837243455   -1.2155333065
C        1.9581517198   -1.0062208274   -0.1394208212
C        3.0296496369   -1.2973250987    0.7117955104
C        2.8360243652   -1.3272288295    2.0988935466
C        1.5870257975   -1.0499551465    2.6422064415
C        0.5058421860   -0.7862423627    1.7866922852
C        0.6923848873   -0.7543516275    0.3996201154
H       -0.1466318313   -0.5407511397   -0.2565028036
H       -0.4808919853   -0.6098407535    2.2079199544
C        1.3771931461   -1.1498765936    4.1105319093
O        0.5893773061   -1.8830917488    4.6473898020
O        2.2370629617   -0.3838146484    4.8190321115
H        2.0115221965   -0.5556676213    5.7446685604
H        3.6699132689   -1.5622555093    2.7556344563
H        4.0120835856   -1.5040852971    0.2969636780
15   

H        2.0896333631   -0.9507914738   -1.2157596834
C        1.9514578956   -0.9933131200   -0.1388612116
C        3.0217382508   -1.3390449547    0.6934664710
C        2.8415350846   -1.3943120820    2.0815637010
C        1.6068433651   -1.0943036303    2.6431602318
C        0.5275841440   -0.7671075981    1.8080131075
C        0.7008689633   -0.7096717414    0.4199559147
H       -0.1361615095   -0.4497470760   -0.2218167912
H       -0.4463805960   -0.5603690913    2.2442921455
C        1.4183744819   -1.2028470139    4.1181755102
O        0.8236908824   -2.0837035743    4.6786892923
O        2.0538830059   -0.2230835638    4.7977141472
H        1.8715626156   -0.4127542071    5.7292517167
H        3.6732239416   -1.6688430717    2.7254206381
H        3.9926316239   -1.5674541186    0.2631019346
15   

H        2.0780868453   -0.9098248511   -1.2148586159
C        1.9525835018   -0.9734707102   -0.1374505134
C        3.0178275617   -1.3854872095    0.6707002792
C        2.8537545594   -1.4680159714    2.0594546257
C        1.6377601395   -1.1415041076    2.6452017903
C        0.5679591248   -0.7298469654    1.8353317955
C        0.7247766655   -0.6452633300    0.4467129143
H       -0.1065119018   -0.3263711091   -0.1756232625
H       -0.3858865768   -0.4777537986    2.2914383180
C        1.4730089987   -1.2405544486    4.1258747246
O        1.1012532053   -2.2147593928    4.7218263265
O        1.7928669262   -0.0917312495    4.7602210115
H        1.6470277692   -0.2803551308    5.6983165634
H        3.6824125473   -1.7907054325    2.6845548236
H        3.9726394018   -1.6427917385    0.2210765715
15   

H        2.0619297307   -0.8790484696   -1.2142882179
C        1.9514687485   -0.9557130225   -0.1360816975
C        3.0114371120   -1.4250706033    0.6471003735
C        2.8664447572   -1.5247666222    2.0368281587
C        1.6710777304   -1.1693990617    2.6487218174
C        0.6126024758   -0.6836214591    1.8642058064
C        0.7500733944   -0.5820549752    0.4747117977
H       -0.0749030200   -0.2118175766   -0.1272480543
H       -0.3175963760   -0.3865703631    2.3416231104
C        1.5383119488   -1.2544280516    4.1318157707
O        1.4097146879   -2.2666544531    4.7662480239
O        1.5122984491   -0.0369473721    4.7172102329
H        1.4076208265   -0.2213792221    5.6616663084
H        3.6920747324   -1.8895834968    2.6426973070
H        3.9478262366   -1.7126182741    0.1774791529
15   

H        2.0487278087   -0.8846202955   -1.2172486883
C        1.9501730390   -0.9588589660   -0.1377202712
C        3.0022848415   -1.4686808095    0.6303329435
C        2.8726607065   -1.5653425127    2.0217252364
C        1.6979208442   -1.1710126480    2.6518016138
C        0.6503151102   -0.6382453526    1.8810809990
C        0.7728982893   -0.5398078585    0.4900048626
H       -0.0447280154   -0.1354381237   -0.0998975397
H       -0.2602933294   -0.3018339589    2.3702935026
C        1.5964290045   -1.2427548451    4.1339544843
O        1.7085418184   -2.2410864406    4.7950790157
O        1.2701392170   -0.0543676424    4.6902010378
H        1.2143574715   -0.2363846156    5.6393816354
H        3.6927049044   -1.9612311848    2.6159925531
H        3.9210355021   -1.7898439227    0.1478195223
15   

H        2.0333477889   -0.9131397838   -1.2227799262
C        1.9445720609   -0.9746810245   -0.1416052950
C        2.9880040123   -1.5117231095    0.6193108779
C        2.8713850995   -1.5919213787    2.0127836059
C        1.7174240984   -1.1528007744    2.6543384806
C        0.6776822002   -0.5944723037    1.8881688360
C        0.7885126428   -0.5127330108    0.4950171921
H       -0.0224202432   -0.0880500029   -0.0898369193
H       -0.2191302971   -0.2253056688    2.3794638445
C        1.6441545613   -1.2154775829    4.1344176728
O        1.9849076384   -2.1537229375    4.8074671940
O        1.0718717348   -0.1194500598    4.6837189327
H        1.0709327244   -0.2970542045    5.6354852440
H        3.6854929099   -2.0098010799    2.6006344860
H        3.8902877126   -1.8671372343    0.1297714653
15   

H        2.0177213984   -0.9530385168   -1.2296520709
C        1.9381290784   -0.9963332632   -0.1468787511
C        2.9725888626   -1.5530639542    0.6115626660
C        2.8683765349   -1.6096800419    2.0070876944
C        1.7361895746   -1.1234446828    2.6558132027
C        0.7023968194   -0.5507022998    1.8890972814
C        0.8022458531   -0.4928425427    0.4939287274
H       -0.0027085010   -0.0551398911   -0.0896010594
H       -0.1835735648   -0.1515397421    2.3766153756
C        1.6838699788   -1.1792633719    4.1339537702
O        2.2303402313   -2.0124054923    4.8120087637
O        0.9059701249   -0.2185100975    4.6851730606
H        0.9569414970   -0.3829528781    5.6380315492
H        3.6777040199   -2.0441234288    2.5899184105
H        3.8587785045   -1.9425878124    0.1185777044
15   

H        1.9967623981   -0.9985488315   -1.2355066795
C        1.9271955807   -1.0218994448   -0.1514282964
C        2.9532646492   -1.5945606186    0.6058808637
C        2.8626774277   -1.6251127168    2.0031200482
C        1.7537231703   -1.0925346466    2.6572694761
C        0.7245634242   -0.5100198702    1.8889142302
C        0.8119451705   -0.4783034750    0.4920856206
H        0.0122838490   -0.0302807382   -0.0909041565
H       -0.1498630353   -0.0810761103    2.3718313136
C        1.7167859944   -1.1395533839    4.1348693982
O        2.4373567390   -1.8226228019    4.8195694351
O        0.7649297147   -0.3497088825    4.6851517703
H        0.8588266694   -0.4875783186    5.6390245957
H        3.6683852851   -2.0734524862    2.5805920152
H        3.8229865204   -2.0170557979    0.1107123013
15   

H        1.9716836750   -1.0475021068   -1.2388640031
C        1.9132132630   -1.0499016641   -0.1538816261
C        2.9316319262   -1.6363232556    0.6029275425
C        2.8559176633   -1.6392787990    2.0013721641
C        1.7711758701   -1.0614683951    2.6583320889
C        0.7462427909   -0.4710202550    1.8892632672
C        0.8193501630   -0.4666600846    0.4912754719
H        0.0247345673   -0.0093776991   -0.0914311624
H       -0.1134980560   -0.0118417641    2.3706635528
C        1.7452535820   -1.0947464362    4.1362315885
O        2.6010901807   -1.5895811598    4.8276185173
O        0.6531705751   -0.5093031990    4.6816360899
H        0.7779857287   -0.6089903262    5.6367401933
H        3.6566943460   -2.0997823402    2.5761517986
H        3.7841533270   -2.0910887515    0.1064277899
15   

H        1.9428083508   -1.0963256327   -1.2386207481
C        1.8962408994   -1.0779957142   -0.1532147306
C        2.9074102361   -1.6776606934    0.6032335744
C        2.8472829559   -1.6530115717    2.0022310415
C        1.7877701653   -1.0308317694    2.6592356365
C        0.7669195983   -0.4332572578    1.8913605426
C        0.8243410988   -0.4558360243    0.4928024744
H        0.0346414762    0.0102412895   -0.0896115753
H       -0.0752428355    0.0541585546    2.3761404362
C        1.7680236527   -1.0466950957    4.1378279895
O        2.7114770644   -1.3258307833    4.8353945750
O        0.5776520949   -0.6891141812    4.6743416112
H        0.7186139316   -0.7416866727    5.6309313280
H        3.6406252961   -2.1237621978    2.5789886558
H        3.7419411255   -2.1639322887    0.1060330646
15   

H        1.9153641081   -1.1385415643   -1.2355604813
C        1.8803414410   -1.1010624179   -0.1502143805
C        2.8824904660   -1.7163503793    0.6063617977
C        2.8371716160   -1.6662333475    2.0052864486
C        1.8045831785   -0.9994947031    2.6597614547
C        0.7894776215   -0.3928852106    1.8941243036
C        0.8314074045   -0.4399928256    0.4956123646
H        0.0476222923    0.0360752297   -0.0866953195
H       -0.0337933105    0.1199082099    2.3852618013
C        1.7840533419   -0.9976994261    4.1397371598
O        2.7616547916   -1.0494982360    4.8426783265
O        0.5419985780   -0.8781398125    4.6641637159
H        0.6825483730   -0.8802391109    5.6221930219
H        3.6205537166   -2.1476979733    2.5866193756
H        3.6978777094   -2.2341901863    0.1092897017
15   

H        1.8897880155   -1.1733116673   -1.2310666802
C        1.8653331469   -1.1182844026   -0.1461791296
C        2.8555593101   -1.7517524627    0.6116652677
C        2.8236111673   -1.6785019759    2.0100256110
C        1.8194261163   -0.9679417384    2.6602269800
C        0.8133161787   -0.3486611413    1.8959990801
C        0.8408643640   -0.4178538674    0.4980399649
H        0.0649308942    0.0702595189   -0.0847933811
H        0.0095153597    0.1890712674    2.3926635020
C        1.7934632355   -0.9448832003    4.1430370010
O        2.7502839752   -0.7666230362    4.8516483970
O        0.5468174124   -1.0710113358    4.6534111148
H        0.6708248665   -1.0221740851    5.6123898934
H        3.5954068553   -2.1730649136    2.5954336213
H        3.6506065816   -2.3015120006    0.1159352979
15   

H        1.8737386061   -1.2017561056   -1.2273500809
C        1.8548434967   -1.1316265896   -0.1432233099
C        2.8264983037   -1.7872614418    0.6201855971
C        2.8015836751   -1.6941567534    2.0176222523
C        1.8244835839   -0.9416422295    2.6591073548
C        0.8359083207   -0.3018934288    1.8917941828
C        0.8555564841   -0.3900062860    0.4947761216
H        0.0933593216    0.1148182733   -0.0919266580
H        0.0524915261    0.2650288712    2.3883487744
C        1.7910699962   -0.8900048866    4.1451899715
O        2.6770102737   -0.4859195492    4.8509845332
O        0.5974142921   -1.2735543584    4.6513670862
H        0.6959588761   -1.1758831871    5.6094562773
H        3.5577840685   -2.2057502250    2.6082042158
H        3.6011892008   -2.3695057376    0.1293563844
15   

H        1.8759930668   -1.2160242428   -1.2250214270
C        1.8528316207   -1.1344748950   -0.1417755480
C        2.7940651603   -1.8190168388    0.6345525790
C        2.7635605273   -1.7112254378    2.0308891714
C        1.8088804705   -0.9196584023    2.6566764989
C        0.8545991492   -0.2450490392    1.8781750327
C        0.8795031147   -0.3474888475    0.4821830972
H        0.1425620987    0.1822960797   -0.1146949049
H        0.0943198900    0.3599492400    2.3654009275
C        1.7699864762   -0.8345619914    4.1451889787
O        2.5399579867   -0.2183024690    4.8314923067
O        0.7111675282   -1.4888448506    4.6709636136
H        0.7857916795   -1.3483255158    5.6257700573
H        3.4961627208   -2.2446375306    2.6313882996
H        3.5494037280   -2.4346844019    0.1544802429
15   

H        1.9106466206   -1.2132795602   -1.2245241036
C        1.8684755192   -1.1259016701   -0.1423056393
C        2.7633789417   -1.8466281828    0.6560121891
C        2.7082077333   -1.7317931572    2.0510529156
C        1.7676188039   -0.9061614372    2.6526979286
C        0.8706339912   -0.1813077253    1.8528038218
C        0.9201932083   -0.2911093008    0.4579934315
H        0.2238369397    0.2723221623   -0.1565537043
H        0.1363160858    0.4686379183    2.3215826814
C        1.7235761227   -0.7864501195    4.1403386036
O        2.3327034541    0.0170083868    4.7929140153
O        0.9060196661   -1.6989718577    4.7090253159
H        0.9623962136   -1.5211176838    5.6587941677
H        3.4062956441   -2.2911159685    2.6686159252
H        3.5024428544   -2.4949347442    0.1939343960
15   

H        1.9514619716   -1.2012019858   -1.2237355177
C        1.8846862979   -1.1143250975   -0.1427154963
C        2.7255932378   -1.8757525463    0.6763716197
C        2.6387882206   -1.7617532588    2.0698602660
C        1.7112776663   -0.9050374246    2.6491887030
C        0.8813247977   -0.1260210698    1.8284328747
C        0.9626040707   -0.2353278403    0.4350646581
H        0.3135547953    0.3652769724   -0.1958568470
H        0.1751459359    0.5660284905    2.2801699064
C        1.6627576143   -0.7599503163    4.1322825295
O        2.0749834754    0.1840236460    4.7509227253
O        1.1553145463   -1.8515669066    4.7458418304
H        1.1932877698   -1.6419972841    5.6900963127
H        3.2972782218   -2.3501740072    2.7037193349
H        3.4482927297   -2.5539658000    0.2316801013
15   

H        1.9884326921   -1.1981722011   -1.2223636314
C        1.8991832970   -1.1130902680   -0.1428246080
C        2.6940529865   -1.9055306415    0.6924233750
C        2.5786730363   -1.7936296870    2.0840381168
C        1.6632396550   -0.9118325715    2.6466059170
C        0.8864727339   -0.0964223548    1.8086642915
C        0.9963933034   -0.2033946128    0.4171691216
H        0.3858298860    0.4242340869   -0.2257663603
H        0.1995307421    0.6232956024    2.2471974847
C        1.5962129775   -0.7529458054    4.1231748595
O        1.7812220763    0.2768979128    4.7161909590
O        1.3883499561   -1.9219453662    4.7700384817
H        1.3883600226   -1.6850308664    5.7086952003
H        3.2045958914   -2.4055551919    2.7287742064
H        3.4041912783   -2.6057748314    0.2618732911
15   

H        2.0149212378   -1.1944450160   -1.2224271548
C        1.9110576096   -1.1123896937   -0.1439611467
C        2.6681553434   -1.9321837467    0.6994086996
C        2.5343863698   -1.8244260447    2.0897928548
C        1.6372779206   -0.9181442789    2.6452156359
C        0.8985684386   -0.0769154954    1.7970060242
C        1.0272049483   -0.1795220849    0.4069582985
H        0.4454532436    0.4694411635   -0.2415043248
H        0.2252664056    0.6605116323    2.2278621978
C        1.5411089085   -0.7595789055    4.1160822823
O        1.4896697931    0.2955813614    4.6937461185
O        1.5887203542   -1.9344694637    4.7856600926
H        1.5333018374   -1.6844647877    5.7193981017
H        3.1353325286   -2.4599886698    2.7355671622
H        3.3639638790   -2.6510318216    0.2761765293
15   

H        2.0401899014   -1.1866240962   -1.2236677495
C        1.9256876196   -1.1083729971   -0.1459963553
C        2.6489146116   -1.9537308873    0.7011561683
C        2.5017305012   -1.8517560583    2.0907516065
C        1.6270662862   -0.9213713044    2.6441669162
C        0.9177629755   -0.0597453595    1.7893951229
C        1.0602871637   -0.1566562019    0.4005041680
H        0.5019660721    0.5104017531   -0.2502088999
H        0.2537796136    0.6897797137    2.2143290827
C        1.4956755607   -0.7734985858    4.1107632085
O        1.2113619973    0.2520745689    4.6764041840
O        1.7686384925   -1.9065735114    4.7996562651
H        1.6501558346   -1.6594206963    5.7283707620
H        3.0806738908   -2.5125344101    2.7312363314
H        3.3290999713   -2.6893842843    0.2814014099
15   

H        2.0648543360   -1.1740148332   -1.2244986619
C        1.9406965341   -1.1009785228   -0.1475290494
C        2.6308886148   -1.9717997082    0.7007446680
C        2.4713793375   -1.8776009104    2.0896492677
C        1.6211153547   -0.9241296484    2.6435138879
C        0.9377947562   -0.0436270063    1.7850007178
C        1.0931442931   -0.1330638850    0.3971583566
H        0.5565606256    0.5511371759   -0.2540570074
H        0.2815442579    0.7154853357    2.2051758979
C        1.4546566499   -0.7934309211    4.1070616868
O        0.9511186087    0.1524007142    4.6606327138
O        1.9392712639   -1.8416860339    4.8143198187
H        1.7607421271   -1.6121339062    5.7380081120
H        3.0265240031   -2.5652977435    2.7226372278
H        3.2946140590   -2.7230497698    0.2822451516
15   

H        2.0869134317   -1.1573567465   -1.2238971849
C        1.9531978642   -1.0915837081   -0.1476030309
C        2.6109762932   -1.9883130922    0.6991181649
C        2.4389648236   -1.9040534453    2.0872114912
C        1.6135344168   -0.9298471498    2.6431869150
C        0.9544077713   -0.0303193323    1.7846256709
C        1.1225172096   -0.1098426204    0.3977283303
H        0.6071071553    0.5915444527   -0.2523109474
H        0.3061436924    0.7364525600    2.2033544998
C        1.4158270656   -0.8205743991    4.1043664813
O        0.7150869652    0.0001981621    4.6434598662
O        2.0995468372   -1.7382239448    4.8286323089
H        1.8698878766   -1.5386220701    5.7479960383
H        2.9660070420   -2.6178585416    2.7151962398
H        3.2580459059   -2.7535749501    0.2799109552
