15   

H        2.1271735345   -1.0610759868   -1.2209000670
C        1.9701880330   -1.0475305648   -0.1458256120
C        3.0517400213   -1.2090819358    0.7250415203
C        2.8496035073   -1.1921327329    2.1114852719
C        1.5750217493   -1.0076583079    2.6408529889
C        0.4892273911   -0.8565667876    1.7591057465
C        0.6850900595   -0.8725847816    0.3736021839
H       -0.1620525304   -0.7512160146   -0.2955417624
H       -0.5139387142   -0.7261740449    2.1592543355
C        1.3363139185   -1.0078945632    4.1002347776
O        0.2532049108   -1.1124393342    4.6203504509
O        2.4619677498   -0.8943827071    4.8444945083
H        2.1477967352   -0.9106841553    5.7603534801
H        3.7100954659   -1.3264421727    2.7621009913
H        4.0522035767   -1.3500578093    0.3259820693
15   

H        2.1246472534   -1.0335680671   -1.2187905213
C        1.9683865181   -1.0309928778   -0.1435298110
C        3.0460703647   -1.2339598024    0.7240858380
C        2.8439185366   -1.2315988433    2.1105081007
C        1.5758451323   -1.0141948099    2.6412102956
C        0.4920431596   -0.8312815328    1.7648196836
C        0.6874088951   -0.8324315056    0.3789791844
H       -0.1568539966   -0.6835927870   -0.2882415059
H       -0.5072725911   -0.6894837941    2.1703958105
C        1.3412519635   -1.0533571554    4.1018528964
O        0.3073808204   -1.3862309155    4.6242305881
O        2.4261715449   -0.7149018760    4.8376101072
H        2.1290438908   -0.7916084568    5.7560133316
H        3.6941522898   -1.4007106341    2.7666543238
H        4.0421658684   -1.3970851213    0.3225687370
15   

H        2.1177431035   -1.0081097302   -1.2164901224
C        1.9639218653   -1.0165901208   -0.1409080612
C        3.0381700382   -1.2616044652    0.7207711799
C        2.8382667866   -1.2736982318    2.1073376471
C        1.5785392440   -1.0245961847    2.6418248852
C        0.4961126211   -0.8062936988    1.7737735727
C        0.6889138715   -0.7926178349    0.3874299044
H       -0.1526154730   -0.6144556443   -0.2760297468
H       -0.4981077504   -0.6504706676    2.1861041009
C        1.3535862452   -1.0994281784    4.1052591957
O        0.4186322885   -1.6454844608    4.6319319426
O        2.3541343201   -0.5472865246    4.8298364494
H        2.0881478454   -0.6791060529    5.7514193558
H        3.6787827100   -1.4750823106    2.7669420124
H        4.0284889241   -1.4467075271    0.3145410675
15   

H        2.1067586980   -0.9837344968   -1.2155328183
C        1.9581488845   -1.0062315564   -0.1394204171
C        3.0296469351   -1.2973336460    0.7117965601
C        2.8360211088   -1.3272371152    2.0988945858
C        1.5870224546   -1.0499659896    2.6422061447
C        0.5058384085   -0.7862553113    1.7866920426
C        0.6923813549   -0.7543645476    0.3996199255
H       -0.1466354160   -0.5407649585   -0.2565032188
H       -0.4808957219   -0.6098539816    2.2079199702
C        1.3771912808   -1.1498826846    4.1105338262
O        0.5893811345   -1.8830960933    4.6473983084
O        2.2370585592   -0.3838121065    4.8190275637
H        2.0116183135   -0.5557740956    5.7446682667
H        3.6699107020   -1.5622609296    2.7556355148
H        4.0120815390   -1.5040915968    0.2969651564
15   

H        2.0896327704   -0.9507974163   -1.2157594952
C        1.9514566481   -0.9933204268   -0.1388611607
C        3.0217368336   -1.3390518269    0.6934669595
C        2.8415329041   -1.3943200049    2.0815640886
C        1.6068408550   -1.0943136274    2.6431597313
C        0.5275817464   -0.7671177677    1.8080125166
C        0.7008671282   -0.7096806715    0.4199554647
H       -0.1361631536   -0.4497556722   -0.2218173553
H       -0.4463829417   -0.5603792958    2.2442917383
C        1.4183718898   -1.2028539988    4.1181781231
O        0.8236936331   -2.0837055336    4.6786978889
O        2.0538775915   -0.2230840961    4.7977099295
H        1.8716523825   -0.4128144247    5.7292539567
H        3.6732220022   -1.6688498964    2.7254210783
H        3.9926307583   -1.5674593252    0.2631027873
15   

H        2.0780868766   -0.9098248013   -1.2148586147
C        1.9525835235   -0.9734706684   -0.1374505141
C        3.0178275751   -1.3854871828    0.6707002832
C        2.8537545594   -1.4680159714    2.0594546257
C        1.6377601395   -1.1415041076    2.6452017903
C        0.5679591462   -0.7298469022    1.8353317980
C        0.7247766924   -0.6452632646    0.4467129149
H       -0.1065118622   -0.3263710114   -0.1756232648
H       -0.3858865388   -0.4777537035    2.2914383359
C        1.4730089987   -1.2405544486    4.1258747246
O        1.1012532053   -2.2147593928    4.7218263265
O        1.7928661616   -0.0917309971    4.7602209427
H        1.6470276425   -0.2803550810    5.6983165536
H        3.6824125360   -1.7907054640    2.6845548218
H        3.9726394193   -1.6427917104    0.2210765826
15   

H        2.0619299964   -0.8790495099   -1.2142884257
C        1.9514688786   -0.9557138171   -0.1360819006
C        3.0114372326   -1.4250709949    0.6471003760
C        2.8664447572   -1.5247666222    2.0368281587
C        1.6710777304   -1.1693990617    2.6487218174
C        0.6126024092   -0.6836219370    1.8642054660
C        0.7500734341   -0.5820558221    0.4747114242
H       -0.0749029409   -0.2118187433   -0.1272486773
H       -0.3175967177   -0.3865709001    2.3416221588
C        1.5383119488   -1.2544280516    4.1318157707
O        1.4097146879   -2.2666544531    4.7662480239
O        1.5122985102   -0.0369475159    4.7172104117
H        1.4075130176   -0.2213766768    5.6616550649
H        3.6920747447   -1.8895829286    2.6426976843
H        3.9478265179   -1.7126185701    0.1774794145
15   

H        2.0487282477   -0.8846210714   -1.2172489022
C        1.9501732874   -0.9588595822   -0.1377204907
C        3.0022850023   -1.4686811796    0.6303329487
C        2.8726607065   -1.5653425127    2.0217252364
C        1.6979208442   -1.1710126480    2.6518016138
C        0.6503152080   -0.6382454540    1.8810806279
C        0.7728985238   -0.5398083120    0.4900044633
H       -0.0447276039   -0.1354385941   -0.0998981968
H       -0.2602933828   -0.3018336302    2.3702923880
C        1.5964290045   -1.2427548451    4.1339544843
O        1.7085418184   -2.2410864406    4.7950790157
O        1.2701397831   -0.0543677990    4.6902014423
H        1.2142168298   -0.2364177317    5.6393674398
H        3.6927049499   -1.9612305864    2.6159929362
H        3.9210358410   -1.7898442173    0.1478198135
15   

H        2.0333480693   -0.9131402806   -1.2227800574
C        1.9445722291   -0.9746813886   -0.1416054288
C        2.9880040886   -1.5117233964    0.6193108803
C        2.8713850995   -1.5919213787    2.0127836059
C        1.7174240984   -1.1528007744    2.6543384806
C        0.6776824481   -0.5944719784    1.8881686305
C        0.7885129363   -0.5127329836    0.4950169656
H       -0.0224196974   -0.0880496965   -0.0898372932
H       -0.2191298844   -0.2253044951    2.3794631720
C        1.6441545613   -1.2154775829    4.1344176728
O        1.9849076384   -2.1537229375    4.8074671940
O        1.0718727576   -0.1194498351    4.6837193151
H        1.0708198881   -0.2971091769    5.6354752321
H        3.6854929717   -2.0098006551    2.6006347311
H        3.8902878856   -1.8671375212    0.1297716467
15   

H        2.0177214489   -0.9530388507   -1.2296521341
C        1.9381291095   -0.9963334891   -0.1468788116
C        2.9725888474   -1.5530641616    0.6115626636
C        2.8683765349   -1.6096800419    2.0070876944
C        1.7361895746   -1.1234446828    2.6558132027
C        0.7023970521   -0.5507019217    1.8890972172
C        0.8022460457   -0.4928423892    0.4939286452
H       -0.0027081076   -0.0551394460   -0.0896011955
H       -0.1835730419   -0.1515385979    2.3766151474
C        1.6838699788   -1.1792633719    4.1339537702
O        2.2303402313   -2.0124054923    4.8120087637
O        0.9059713671   -0.2185092929    4.6851732940
H        0.9568761102   -0.3830035084    5.6380264796
H        3.6777040889   -2.0441231795    2.5899185129
H        3.8587785182   -1.9425880590    0.1185777873
15   

H        1.9967624475   -0.9985487829   -1.2355066775
C        1.9271956118   -1.0218994084   -0.1514282973
C        2.9532646350   -1.5945606605    0.6058808637
C        2.8626774277   -1.6251127168    2.0031200482
C        1.7537231703   -1.0925346466    2.6572694761
C        0.7245635685   -0.5100196084    1.8889142399
C        0.8119452983   -0.4783032452    0.4920856285
H        0.0122840965   -0.0302802876   -0.0909041433
H       -0.1498626881   -0.0810754559    2.3718313251
C        1.7167859944   -1.1395533839    4.1348693982
O        2.4373567390   -1.8226228019    4.8195694351
O        0.7649306566   -0.3497078344    4.6851518654
H        0.8588025802   -0.4876063788    5.6390229513
H        3.6683853075   -2.0734524229    2.5805920357
H        3.8229864955   -2.0170558756    0.1107123115
15   

H        1.9716837922   -1.0475018390   -1.2388639968
C        1.9132133481   -1.0499014801   -0.1538816162
C        2.9316319599   -1.6363231727    0.6029275387
C        2.8559176633   -1.6392787990    2.0013721641
C        1.7711758701   -1.0614683951    2.6583320889
C        0.7462428305   -0.4710201766    1.8892632705
C        0.8193502496   -0.4666599043    0.4912754751
H        0.0247347028   -0.0093774423   -0.0914311579
H       -0.1134980111   -0.0118416681    2.3706635458
C        1.7452535820   -1.0947464362    4.1362315885
O        2.6010901807   -1.5895811598    4.8276185173
O        0.6531705508   -0.5093032272    4.6816360804
H        0.7779856496   -0.6089903997    5.6367401868
H        3.6566943188   -2.0997823952    2.5761517924
H        3.7841533513   -2.0910886618    0.1064277770
15   

H        1.9428082620   -1.0963258153   -1.2386207523
C        1.8962408396   -1.0779958412   -0.1532147345
C        2.9074102380   -1.6776607056    0.6032335754
C        2.8472829559   -1.6530115717    2.0022310415
C        1.7877701653   -1.0308317694    2.6592356365
C        0.7669194346   -0.4332575517    1.8913605313
C        0.8243409329   -0.4558363316    0.4928024635
H        0.0346411728    0.0102407288   -0.0896116044
H       -0.0752432278    0.0541578817    2.3761403926
C        1.7680236527   -1.0466950957    4.1378279895
O        2.7114770644   -1.3258307833    4.8353945750
O        0.5776517071   -0.6891155315    4.6743416240
H        0.7186248213   -0.7416513092    5.6309316990
H        3.6406252636   -2.1237622357    2.5789886724
H        3.7419411359   -2.1639322970    0.1060330743
15   

H        1.9153641293   -1.1385419145   -1.2355605248
C        1.8803414615   -1.1010626403   -0.1502144268
C        2.8824905404   -1.7163504210    0.6063618067
C        2.8371716160   -1.6662333475    2.0052864486
C        1.8045831785   -0.9994947031    2.6597614547
C        0.7894773660   -0.3928857059    1.8941242159
C        0.8314072239   -0.4399933353    0.4956122734
H        0.0476219103    0.0360742935   -0.0866954845
H       -0.0337940439    0.1199070900    2.3852615030
C        1.7840533419   -0.9976994261    4.1397371598
O        2.7616547916   -1.0494982360    4.8426783265
O        0.5419985649   -0.8781412741    4.6641638869
H        0.6825564641   -0.8801565787    5.6221921987
H        3.6205535845   -2.1476980897    2.5866194695
H        3.6978778053   -2.2341902703    0.1092897924
15   

H        1.8897885492   -1.1733116984   -1.2310667921
C        1.8653335224   -1.1182843831   -0.1461792486
C        2.8555595800   -1.7517523895    0.6116652839
C        2.8236111673   -1.6785019759    2.0100256110
C        1.8194261163   -0.9679417384    2.6602269800
C        0.8133160400   -0.3486615186    1.8959988503
C        0.8408644864   -0.4178541480    0.4980397281
H        0.0649309172    0.0702588751   -0.0847937890
H        0.0095146169    0.1890703428    2.3926627561
C        1.7934632355   -0.9448832003    4.1430370010
O        2.7502839752   -0.7666230362    4.8516483970
O        0.5468177574   -1.0710123259    4.6534114598
H        0.6708114027   -1.0220489458    5.6123856183
H        3.5954065380   -2.1730651815    2.5954338423
H        3.6506068965   -2.3015120165    0.1159354893
15   

H        1.8737394104   -1.2017561583   -1.2273502518
C        1.8548440886   -1.1316265391   -0.1432234926
C        2.8264986725   -1.7872614140    0.6201856187
C        2.8015836751   -1.6941567534    2.0176222523
C        1.8244835839   -0.9416422295    2.6591073548
C        0.8359084315   -0.3018934839    1.8917938251
C        0.8555569296   -0.3900063135    0.4947757527
H        0.0933598445    0.1148180620   -0.0919272856
H        0.0524911985    0.2650287293    2.3883476592
C        1.7910699962   -0.8900048866    4.1451899715
O        2.6770102737   -0.4859195492    4.8509845332
O        0.5974147484   -1.2735548633    4.6513674909
H        0.6959122589   -1.1757461109    5.6094475160
H        3.5577835935   -2.2057505796    2.6082045643
H        3.6011895918   -2.3695059061    0.1293566725
15   

H        1.8759941290   -1.2160237914   -1.2250215831
C        1.8528323926   -1.1344744986   -0.1417757063
C        2.7940655477   -1.8190167158    0.6345525965
C        2.7635605273   -1.7112254378    2.0308891714
C        1.8088804705   -0.9196584023    2.6566764989
C        0.8545995526   -0.2450486724    1.8781747301
C        0.8795039097   -0.3474883213    0.4821827788
H        0.1425632295    0.1822968115   -0.1146954538
H        0.0943202253    0.3599499018    2.3654000403
C        1.7699864762   -0.8345619914    4.1451889787
O        2.5399579867   -0.2183024690    4.8314923067
O        0.7111676674   -1.4888448234    4.6709637951
H        0.7857323025   -1.3482351985    5.6257616107
H        3.4961622162   -2.2446378903    2.6313886454
H        3.5494040814   -2.4346845039    0.1544804971
15   

H        1.9106465849   -1.2132795520   -1.2245241021
C        1.8684754909   -1.1259016710   -0.1423056367
C        2.7633789307   -1.8466281764    0.6560121854
C        2.7082077333   -1.7317931572    2.0510529156
C        1.7676188039   -0.9061614372    2.6526979286
C        0.8706339693   -0.1813077377    1.8528038330
C        0.9201931743   -0.2911093136    0.4579934429
H        0.2238368932    0.2723221420   -0.1565536866
H        0.1363160634    0.4686378978    2.3215827064
C        1.7235761227   -0.7864501195    4.1403386036
O        2.3327034541    0.0170083868    4.7929140153
O        0.9060190517   -1.6989713415    4.7090252635
H        0.9623960999   -1.5211175813    5.6587941641
H        3.4062956617   -2.2911159600    2.6686159123
H        3.5024428520   -2.4949347203    0.1939343822
15   

H        1.9514645867   -1.2011998028   -1.2237352014
C        1.8846900067   -1.1143216718   -0.1427152129
C        2.7255967172   -1.8757492271    0.6763720607
C        2.6387926198   -1.7617487095    2.0698606993
C        1.7112838138   -0.9050314319    2.6491887415
C        0.8813309279   -0.1260151121    1.8284329974
C        0.9626090243   -0.2353230421    0.4350648199
H        0.3135594396    0.3652815005   -0.1958566242
H        0.1751523745    0.5660345714    2.2801703690
C        1.6627618949   -0.7599451383    4.1322855712
O        2.0749866191    0.1840223909    4.7509295601
O        1.1553131607   -1.8515619452    4.7458396161
H        1.1933883675   -1.6420402764    5.6901006224
H        3.2972821136   -2.3501701431    2.7037195513
H        3.4482949961   -2.5539638031    0.2316805882
15   

H        1.9884391025   -1.1981662775   -1.2223627714
C        1.8991899712   -1.1130834649   -0.1428237965
C        2.6940578273   -1.9055251455    0.6924247593
C        2.5786775198   -1.7936236373    2.0840394834
C        1.6632464380   -0.9118247996    2.6466060274
C        0.8864810929   -0.0964131290    1.8086645217
C        0.9964016373   -0.2033858303    0.4171694073
H        0.3858390358    0.4242434452   -0.2257662866
H        0.1995395869    0.6233051760    2.2471979417
C        1.5962172013   -0.7529411735    4.1231769655
O        1.7812278409    0.2768966197    4.7161987547
O        1.3883461745   -1.9219425854    4.7700344391
H        1.3885023896   -1.6850548193    5.7086979057
H        3.2045983721   -2.4055511657    2.7287754636
H        3.4041944592   -2.6057712222    0.2618750123
15   

H        2.0149314664   -1.1944361065   -1.2224247785
C        1.9110673323   -1.1123790180   -0.1439589532
C        2.6681612102   -1.9321751437    0.6994125419
C        2.5343907127   -1.8244161650    2.0897965145
C        1.6372851376   -0.9181310888    2.6452160037
C        0.8985796109   -0.0768995786    1.7970060938
C        1.0272173541   -0.1795076000    0.4069585956
H        0.4454681695    0.4694566771   -0.2415052539
H        0.2252788909    0.6605290305    2.2278617685
C        1.5411137294   -0.7595713251    4.1160844188
O        1.4896788121    0.2955801061    4.6937603843
O        1.5887118759   -1.9344689324    4.7856507691
H        1.5334094970   -1.6844647289    5.7193958016
H        3.1353330841   -2.4599816460    2.7355714513
H        3.3639672365   -2.6510264167    0.2761816758
15   

H        2.0401967718   -1.1866166630   -1.2236655108
C        1.9256941509   -1.1083637144   -0.1459942856
C        2.6489176609   -1.9537232503    0.7011597414
C        2.5017324774   -1.8517468180    2.0907549812
C        1.6270710150   -0.9213588956    2.6441673895
C        0.9177714118   -0.0597306698    1.7893952558
C        1.0602964424   -0.1566432590    0.4005044904
H        0.5019778096    0.5104155824   -0.2502097709
H        0.2537898097    0.6897961511    2.2143288255
C        1.4956788248   -0.7734899047    4.1107672385
O        1.2113706235    0.2520767369    4.6764130352
O        1.7686308344   -1.9065713425    4.7996538708
H        1.6502098870   -1.6594060461    5.7283728937
H        3.0806724976   -2.5125272828    2.7312405238
H        3.3291006270   -2.6893795915    0.2814062629
15   

H        2.0648545847   -1.1740152487   -1.2244974966
C        1.9406966731   -1.1009767735   -0.1475280417
C        2.6308866602   -1.9717980199    0.7007474088
C        2.4713770199   -1.8775965807    2.0896518253
C        1.6211151905   -0.9241232014    2.6435138155
C        0.9377966604   -0.0436201405    1.7849997366
C        1.0931463139   -0.1330593856    0.3971575286
H        0.5565641900    0.5511417002   -0.2540590749
H        0.2815477020    0.7154938284    2.2051743257
C        1.4546560578   -0.7934231178    4.1070663019
O        0.9511230189    0.1524037904    4.6606374231
O        1.9392658044   -1.8416820020    4.8143220733
H        1.7607572588   -1.6121210174    5.7380121042
H        3.0265198003   -2.5652936723    2.7226411270
H        3.2946105801   -2.7230502684    0.2822493995
15   

H        2.1248479028   -1.0886098179   -1.2217068596
C        1.9689205113   -1.0630879969   -0.1466950764
C        3.0551203795   -1.1833803910    0.7247592552
C        2.8547364967   -1.1505359610    2.1112145931
C        1.5758198306   -0.9981885517    2.6410089043
C        0.4868535433   -0.8776673527    1.7576335735
C        0.6811191452   -0.9097914054    0.3722463100
H       -0.1692853519   -0.8155216113   -0.2971323604
H       -0.5184873236   -0.7580303740    2.1557491090
C        1.3386134267   -0.9604966406    4.0999134626
O        0.2563915372   -0.8311031359    4.6169866066
O        2.4596394743   -1.0856136709    4.8494203509
H        2.1436198128   -1.0425286811    5.7637993738
H        3.7224387057   -1.2469562182    2.7588657527
H        4.0585607674   -1.3027877713    0.3261256597
