15   

H        1.8844832090   -1.1974162039   -1.1372587305
C        1.8989254761   -1.1491116420   -0.0516465335
C        2.9606296634   -1.7132825569    0.6606467208
C        2.9827070029   -1.6488166416    2.0589072256
C        1.9376998902   -1.0273832478    2.7676383504
C        0.8787641098   -0.4514148148    2.0340865387
C        0.8609355870   -0.5150126031    0.6358009412
H        0.0425686308   -0.0641659430    0.0808537377
H        0.0688489981    0.0724063875    2.5336904359
C        1.9680897212   -0.9741908872    4.2380961931
O        2.9986689886   -1.1458832446    4.8281131912
O        0.8177008376   -0.7689023661    4.9117254249
H        0.0392105000   -0.8750360873    4.3499263529
H        3.8160617957   -2.0885568349    2.6033539570
H        3.7727302611   -2.2015729222    0.1292303820
15   

H        1.8836705010   -1.2630062341   -1.1392463111
C        1.8975114306   -1.2019002828   -0.0542871601
C        2.9496597875   -1.7733340775    0.6666812221
C        2.9716329428   -1.6911821500    2.0642063256
C        1.9362429980   -1.0429567376    2.7629975059
C        0.8870027115   -0.4610405563    2.0206419247
C        0.8685926678   -0.5432259560    0.6235266946
H        0.0576302085   -0.0865631608    0.0625067291
H        0.0863565379    0.0823176167    2.5150172265
C        1.9669692172   -0.9570638609    4.2318026208
O        2.9798986341   -1.1865614993    4.8318058916
O        0.8201798788   -0.6788194542    4.8963881059
H        0.0378185925   -0.9607088413    4.4072844056
H        3.7987821573   -2.1346460508    2.6149682007
H        3.7551655362   -2.2797031842    0.1422490833
15   

H        1.8958438066   -1.3125219179   -1.1453666464
C        1.9057367065   -1.2419894017   -0.0609622133
C        2.9499752161   -1.8156708190    0.6699184515
C        2.9671750333   -1.7205299522    2.0668733981
C        1.9351384891   -1.0554457858    2.7547957546
C        0.8935575410   -0.4730761066    2.0023552751
C        0.8794300411   -0.5687305204    0.6062335645
H        0.0740185876   -0.1107404210    0.0383779229
H        0.0955339700    0.0802609333    2.4903519812
C        1.9609908645   -0.9456829309    4.2222495775
O        2.9519525252   -1.2278115673    4.8353835352
O        0.8187592339   -0.5923984266    4.8733959186
H        0.0425716754   -1.0278574338    4.5047499681
H        3.7891102528   -2.1644925574    2.6248673706
H        3.7535218028   -2.3330295504    0.1533440337
15   

H        1.9219800126   -1.3339187803   -1.1566101321
C        1.9244032549   -1.2605801623   -0.0723826254
C        2.9607588922   -1.8366374352    0.6679765179
C        2.9681667798   -1.7376398499    2.0649108055
C        1.9345598398   -1.0648849422    2.7430512647
C        0.9005054602   -0.4818533433    1.9809999830
C        0.8957410746   -0.5817159669    0.5852590808
H        0.0953972970   -0.1228693433    0.0110251572
H        0.0999420303    0.0732051462    2.4631295063
C        1.9493363838   -0.9460740059    4.2102333606
O        2.9157964688   -1.2750075839    4.8379326195
O        0.8161977537   -0.5119863117    4.8460295134
H        0.0570666120   -1.0666835643    4.6424416260
H        3.7843966643   -2.1830265360    2.6299507009
H        3.7659036544   -2.3585472987    0.1586096985
15   

H        1.9614562082   -1.3224515671   -1.1733828935
C        1.9526663349   -1.2536357316   -0.0889310449
C        2.9803753812   -1.8339797940    0.6601894715
C        2.9726446558   -1.7413492376    2.0576733332
C        1.9329460439   -1.0694659594    2.7274545968
C        0.9072862030   -0.4834615774    1.9565384156
C        0.9172663482   -0.5772610131    0.5605043427
H        0.1222386444   -0.1165863795   -0.0195398018
H        0.0997790969    0.0659257778    2.4336916237
C        1.9291472176   -0.9585095122    4.1957072780
O        2.8728462897   -1.3253088097    4.8365547622
O        0.8133990387   -0.4410092316    4.8144934309
H        0.0849154923   -1.0676539482    4.8165609711
H        3.7819463984   -2.1906380805    2.6293876703
H        3.7902619457   -2.3546337604    0.1571904363
15   

H        2.0124564581   -1.2864781943   -1.1912249491
C        1.9887767994   -1.2287967976   -0.1063849781
C        3.0061110085   -1.8165521756    0.6511135032
C        2.9781658542   -1.7394121856    2.0493708045
C        1.9290736788   -1.0744518286    2.7116041021
C        0.9136936090   -0.4819178831    1.9321024271
C        0.9434548100   -0.5606579024    0.5354840999
H        0.1548928954   -0.0960812473   -0.0501632058
H        0.0962633066    0.0568915780    2.4044490565
C        1.8997871848   -0.9847667810    4.1816034081
O        2.8238412094   -1.3846559978    4.8327016725
O        0.8135931305   -0.3839986397    4.7813436128
H        0.1343853978   -1.0226276622    5.0130069205
H        3.7788208275   -2.1957640401    2.6274554457
H        3.8230893961   -2.3317544262    0.1541029366
15   

H        2.0645089366   -1.2497994295   -1.2060670031
C        2.0244639888   -1.2045514611   -0.1211518444
C        3.0313880981   -1.7988862639    0.6450830100
C        2.9814281712   -1.7388971377    2.0436506554
C        1.9210666020   -1.0834367536    2.6976864150
C        0.9160134256   -0.4850863597    1.9090875731
C        0.9674137213   -0.5471132132    0.5123210088
H        0.1854392091   -0.0791822469   -0.0793888118
H        0.0874514057    0.0417439833    2.3755845409
C        1.8644636305   -1.0161122555    4.1688072952
O        2.7727895320   -1.4447172497    4.8270557774
O        0.8119089140   -0.3497498152    4.7476210989
H        0.2118246188   -0.9482730340    5.2015791505
H        3.7735102631   -2.2016908689    2.6282181143
H        3.8568774383   -2.3067115769    0.1546822161
15   

H        2.1054532671   -1.2293294577   -1.2160851154
C        2.0505398178   -1.1936144172   -0.1314905273
C        3.0484451882   -1.7918782449    0.6434522064
C        2.9786889414   -1.7449757631    2.0417456418
C        1.9079291966   -1.0974999342    2.6870042078
C        0.9117453091   -0.4960151974    1.8893577770
C        0.9825190842   -0.5455292990    0.4930000823
H        0.2062944649   -0.0760489549   -0.1049735345
H        0.0733119318    0.0209113295    2.3493632018
C        1.8283876185   -1.0446254665    4.1582480503
O        2.7179557128   -1.5064188120    4.8231435473
O        0.8069598146   -0.3320784798    4.7179659736
H        0.3143662119   -0.8554760994    5.3592634566
H        3.7635623829   -2.2116567932    2.6327667690
H        3.8820037513   -2.2931133217    0.1600462377
15   

H        2.1395031700   -1.2160609266   -1.2221905298
C        2.0722326348   -1.1859021559   -0.1381393495
C        3.0670505905   -1.7782368806    0.6453618072
C        2.9811051211   -1.7386724806    2.0430522635
C        1.8969705720   -1.1044986238    2.6790794786
C        0.9035566996   -0.5098852693    1.8727678866
C        0.9906950055   -0.5516475376    0.4771425667
H        0.2160940983   -0.0875836629   -0.1271111134
H        0.0537528190   -0.0056980301    2.3261864814
C        1.7990665535   -1.0595178949    4.1496603314
O        2.6824184080   -1.5241133775    4.8236025509
O        0.7732467616   -0.3583028982    4.6950932323
H        0.4261062690   -0.8001900064    5.4800685747
H        3.7633063537   -2.2012091890    2.6407304370
H        3.9105105551   -2.2695271919    0.1690292062
15   

H        2.1597658812   -1.2034038086   -1.2262338517
C        2.0832692097   -1.1788307704   -0.1426624113
C        3.0755115882   -1.7681183238    0.6464386283
C        2.9774407210   -1.7359875800    2.0435509969
C        1.8837174658   -1.1121829754    2.6732773881
C        0.8926040617   -0.5213444926    1.8614183886
C        0.9918870747   -0.5555309716    0.4664158645
H        0.2186516139   -0.0946720309   -0.1420083200
H        0.0346192211   -0.0271860894    2.3105995813
C        1.7732893668   -1.0739759448    4.1431246634
O        2.6438080444   -1.5545251973    4.8245058725
O        0.7399032048   -0.3917489861    4.6808940055
H        0.5371981302   -0.7272174910    5.5654997440
H        3.7573414649   -2.1965589565    2.6456723076
H        3.9261415111   -2.2515741214    0.1748888228
15   

H        2.1789644823   -1.1891821767   -1.2286799821
C        2.0952139653   -1.1693771042   -0.1455525503
C        3.0879665109   -1.7520006919    0.6479199725
C        2.9803152404   -1.7262627939    2.0444846279
C        1.8762582989   -1.1158473676    2.6690378714
C        0.8843820462   -0.5322814745    1.8529576978
C        0.9934496703   -0.5596239267    0.4585601967
H        0.2193232875   -0.1046478116   -0.1531445974
H        0.0177756495   -0.0501322121    2.2987463736
C        1.7556163487   -1.0842057432    4.1380139996
O        2.6168335977   -1.5726145196    4.8267461092
O        0.6983563091   -0.4452919620    4.6712270085
H        0.6316778721   -0.6531536498    5.6154453424
H        3.7600916834   -2.1822268403    2.6502286165
H        3.9461082904   -2.2257419888    0.1801522210
15   

H        2.1947375522   -1.1718994312   -1.2287321801
C        2.1059674594   -1.1574191261   -0.1459220194
C        3.1015893193   -1.7322260804    0.6496946845
C        2.9872788524   -1.7136387943    2.0458615454
C        1.8733664172   -1.1187169149    2.6677320617
C        0.8783521305   -0.5435259101    1.8495566891
C        0.9943767176   -0.5631389099    0.4556082463
H        0.2175956020   -0.1149158137   -0.1577180844
H        0.0034217959   -0.0748249740    2.2934683729
C        1.7453979085   -1.0948666235    4.1361303246
O        2.6008502046   -1.5892391563    4.8282333557
O        0.6573499088   -0.5109972470    4.6661220628
H        0.6999389110   -0.5653211222    5.6333332705
H        3.7687697694   -2.1642754468    2.6533679388
H        3.9668078898   -2.1948621556    0.1838599699
15   

H        2.2009839516   -1.1492747322   -1.2274090506
C        2.1103898610   -1.1418715403   -0.1446767059
C        3.1112091288   -1.7098760553    0.6492616590
C        2.9944064905   -1.7007222614    2.0452979733
C        1.8725233747   -1.1226119189    2.6688220529
C        0.8719842110   -0.5547454613    1.8522415646
C        0.9908387542   -0.5643521868    0.4584090476
H        0.2096747983   -0.1221300415   -0.1537021551
H       -0.0099688171   -0.1004076649    2.2971439699
C        1.7418525834   -1.1091454935    4.1372193448
O        2.5956212908   -1.6110535645    4.8255198551
O        0.6233568342   -0.5811941972    4.6668987331
H        0.7380839982   -0.4603478616    5.6215896631
H        3.7795799950   -2.1469054862    2.6513535751
H        3.9821308405   -2.1604571539    0.1822318442
15   

H        2.2027013630   -1.1255936397   -1.2237542679
C        2.1119363397   -1.1268780137   -0.1410065085
C        3.1182456938   -1.6906716824    0.6489070215
C        3.0011378631   -1.6930401552    2.0449204161
C        1.8733001599   -1.1310599317    2.6726770834
C        0.8668950283   -0.5679348943    1.8599348718
C        0.9863298466   -0.5656018283    0.4660956454
H        0.2005716470   -0.1274380439   -0.1430517793
H       -0.0207086814   -0.1274536855    2.3074058063
C        1.7425057022   -1.1297618481    4.1413487381
O        2.5948292523   -1.6432847721    4.8216789977
O        0.5999696414   -0.6453359559    4.6728183693
H        0.7515957899   -0.3386902404    5.5778783972
H        3.7903786958   -2.1366842451    2.6475812333
H        3.9934804448   -2.1295370232    0.1787779525
15   

H        2.2024879370   -1.1019320072   -1.2185547237
C        2.1119070557   -1.1140131838   -0.1358493231
C        3.1223063801   -1.6781075601    0.6485536646
C        3.0053633313   -1.6947129739    2.0444545211
C        1.8737130844   -1.1466466987    2.6777362201
C        0.8627512450   -0.5838376160    1.8704092986
C        0.9821315163   -0.5671751389    0.4766453835
H        0.1928312681   -0.1297524483   -0.1284586357
H       -0.0290746778   -0.1558026809    2.3213999277
C        1.7438508674   -1.1595768666    4.1464720475
O        2.5897002815   -1.6921276373    4.8182492012
O        0.5891191364   -0.6919566598    4.6844649821
H        0.7563617458   -0.2017551547    5.4991357891
H        3.7976039387   -2.1390532423    2.6427142472
H        4.0004627221   -2.1065212224    0.1742259336
15   

H        2.1953683049   -1.0663820536   -1.2108944174
C        2.1066713597   -1.0918900298   -0.1282501235
C        3.1239696622   -1.6550071201    0.6478132059
C        3.0094484115   -1.6892285862    2.0435223722
C        1.8734344847   -1.1600100090    2.6850128402
C        0.8549433978   -0.5989534373    1.8860775983
C        0.9721623670   -0.5642987729    0.4924011107
H        0.1772412290   -0.1287027693   -0.1066526492
H       -0.0417668144   -0.1876396608    2.3427179347
C        1.7466811696   -1.1926938506    4.1535312613
O        2.5937540428   -1.7314971790    4.8159724646
O        0.5843044840   -0.7355723178    4.7051138892
H        0.7466948565   -0.0720224771    5.3842213722
H        3.8068046077   -2.1332862643    2.6352650053
H        4.0054447096   -2.0694051765    0.1671742504
15   

H        2.1905579302   -1.0213689815   -1.1987886249
C        2.1017297405   -1.0645299066   -0.1166894722
C        3.1207636725   -1.6369169451    0.6502452086
C        3.0057389160   -1.6948435125    2.0450570331
C        1.8682794942   -1.1791073998    2.6946415535
C        0.8474513101   -0.6093472935    1.9051312759
C        0.9649188584   -0.5516416990    0.5121784418
H        0.1680632765   -0.1106805821   -0.0803909798
H       -0.0525441702   -0.2119757172    2.3675040616
C        1.7415560525   -1.2388603941    4.1617148102
O        2.5707986420   -1.8107868799    4.8154003260
O        0.6010662935   -0.7318610651    4.7354519092
H        0.7746081666    0.0716806668    5.2340629708
H        3.8038373636   -2.1467329301    2.6299724136
H        4.0036977403   -2.0406353168    0.1631609778
15   

H        2.1933897097   -0.9585686266   -1.1807826184
C        2.1027835897   -1.0221773587   -0.0998061702
C        3.1220389913   -1.6064511339    0.6578031113
C        3.0042681705   -1.6921012218    2.0508748995
C        1.8645748570   -1.1913361425    2.7078780131
C        0.8429153278   -0.6101822121    1.9280140921
C        0.9629631329   -0.5252968679    0.5366077966
H        0.1652696734   -0.0772691477   -0.0495665923
H       -0.0614212010   -0.2288721650    2.3953442083
C        1.7335516212   -1.2860274488    4.1720040923
O        2.5470794022   -1.8862187993    4.8167186007
O        0.6300193536   -0.7166803774    4.7707449260
H        0.8012632659    0.1859191574    5.0515072455
H        3.8016644379   -2.1543588023    2.6287714111
H        4.0068426171   -1.9987345151    0.1647079477
15   

H        2.1961115517   -0.8971929907   -1.1598389256
C        2.1040500086   -0.9792901674   -0.0801938864
C        3.1228080471   -1.5758555291    0.6684104599
C        3.0027517731   -1.6867923043    2.0594104101
C        1.8620106970   -1.1980285994    2.7233585760
C        0.8401479814   -0.6051433296    1.9526609400
C        0.9623537600   -0.4955565130    0.5631050808
H        0.1643532810   -0.0402699298   -0.0171110384
H       -0.0679686280   -0.2380906580    2.4240057040
C        1.7266546409   -1.3254933139    4.1840171593
O        2.5229916889   -1.9593575847    4.8163591587
O        0.6772039887   -0.6878346228    4.8066287560
H        0.8181736138    0.2612559474    4.8588873728
H        3.7989678033   -2.1597960931    2.6303696940
H        4.0086004883   -1.9589450916    0.1697934160
15   

H        2.1842962882   -0.8585564594   -1.1414671542
C        2.0944017583   -0.9525234760   -0.0625682249
C        3.1143940391   -1.5582324793    0.6768496839
C        2.9970501803   -1.6853197870    2.0665835473
C        1.8585903961   -1.2025906257    2.7386691004
C        0.8345136931   -0.6014802543    1.9771897619
C        0.9539684530   -0.4762232258    0.5886188979
H        0.1545143233   -0.0157673385    0.0144338571
H       -0.0748314074   -0.2435666641    2.4530359751
C        1.7265393064   -1.3498761132    4.1973771368
O        2.5034087052   -2.0224237029    4.8141474954
O        0.7378277358   -0.6540267079    4.8415011394
H        0.8070926336    0.2927333846    4.6857291610
H        3.7938514496   -2.1659150087    2.6305042453
H        3.9988947300   -1.9363252534    0.1720656428
15   

H        2.1519556297   -0.8483769262   -1.1305803849
C        2.0684108215   -0.9471799842   -0.0515697673
C        3.0908443966   -1.5603773039    0.6780531559
C        2.9819799133   -1.6937006823    2.0677308833
C        1.8505867946   -1.2086794939    2.7499167926
C        0.8228072357   -0.6012987814    1.9982720009
C        0.9337227265   -0.4703398663    0.6093685790
H        0.1321252234   -0.0054386625    0.0417323442
H       -0.0838794583   -0.2448911692    2.4799950620
C        1.7320799397   -1.3605367496    4.2090372779
O        2.4827995999   -2.0780554326    4.8083043997
O        0.8064534336   -0.6146942322    4.8726871738
H        0.7703461006    0.2910990003    4.5467632775
H        3.7808014217   -2.1795513938    2.6243913232
H        3.9708336277   -1.9391997674    0.1658922399
15   

H        2.1034352083   -0.8647256417   -1.1265599472
C        2.0299507334   -0.9618787627   -0.0466418175
C        3.0549711052   -1.5824761389    0.6727609022
C        2.9596183385   -1.7129529794    2.0635131382
C        1.8403954203   -1.2166575405    2.7574645586
C        0.8086414230   -0.6030514419    2.0161180674
C        0.9059125577   -0.4755888390    0.6256807385
H        0.1022915462   -0.0056215057    0.0650842784
H       -0.0911802401   -0.2394286778    2.5047680415
C        1.7446312744   -1.3600023303    4.2189677666
O        2.4629322401   -2.1234549509    4.8019628397
O        0.8796504269   -0.5710367319    4.8998210819
H        0.7136785513    0.2641547569    4.4462994831
H        3.7609946080   -2.2031248663    2.6127874758
H        3.9269267841   -1.9684184442    0.1521650058
15   

H        2.0483754515   -0.9004073291   -1.1277962891
C        1.9860147222   -0.9912896168   -0.0466176216
C        3.0102267538   -1.6234054374    0.6635130967
C        2.9298590673   -1.7445964311    2.0558598790
C        1.8278850061   -1.2264020742    2.7613007452
C        0.7957497142   -0.6018653210    2.0292943020
C        0.8776511840   -0.4847266286    0.6367657383
H        0.0748332715   -0.0057020586    0.0827147887
H       -0.0926432055   -0.2202678566    2.5243665965
C        1.7595380070   -1.3521456080    4.2260588572
O        2.4386596347   -2.1607815522    4.7957903969
O        0.9540626887   -0.5217672158    4.9195987469
H        0.6435407285    0.2201966115    4.3848134531
H        3.7315678299   -2.2416869838    2.5984812313
H        3.8706068996   -2.0242003675    0.1348850493
15   

H        1.9917912439   -0.9392916037   -1.1330658549
C        1.9428054041   -1.0198662027   -0.0503771946
C        2.9616869024   -1.6703964789    0.6501048879
C        2.8991580541   -1.7770340503    2.0443351382
C        1.8214338464   -1.2257538779    2.7626950580
C        0.7944337271   -0.5812690134    2.0399399868
C        0.8580566837   -0.4798261404    0.6450024021
H        0.0601671841    0.0153253903    0.0980784519
H       -0.0754947490   -0.1674587893    2.5406505737
C        1.7842938436   -1.3319329438    4.2312348889
O        2.4463763271   -2.1623277464    4.7902588936
O        1.0071194014   -0.4880788124    4.9361972834
H        0.5258321485    0.1307977126    4.3713620098
H        3.6984683496   -2.2865864575    2.5789348635
H        3.8049746896   -2.0954892972    0.1129514276
