15   

H        1.8844838578   -1.1974114193   -1.1372589339
C        1.8989260957   -1.1491075381   -0.0516467063
C        2.9606302532   -1.7132789428    0.6606461977
C        2.9827075016   -1.6488140285    2.0589067429
C        1.9377003239   -1.0273811863    2.7676382673
C        0.8787646096   -0.4514121773    2.0340868244
C        0.8609361842   -0.5150089577    0.6358011712
H        0.0425692309   -0.0641619708    0.0808542297
H        0.0688493878    0.0724085110    2.5336910829
C        1.9680897212   -0.9741908872    4.2380961931
O        2.9986689886   -1.1458832446    4.8281131912
O        0.8177008376   -0.7689023661    4.9117254249
H        0.0392105000   -0.8750360873    4.3499263529
H        3.8160621771   -2.0885547701    2.6033532160
H        3.7727308427   -2.2015690119    0.1292295714
15   

H        1.8836723482   -1.2629964113   -1.1392468886
C        1.8975131514   -1.2018918690   -0.0542876565
C        2.9496614031   -1.7733266574    0.6666800775
C        2.9716342451   -1.6911768061    2.0642052923
C        1.9362440901   -1.0429525474    2.7629972440
C        0.8870039960   -0.4610351838    2.0206423457
C        0.8685942705   -0.5432185012    0.6235269744
H        0.0576318435   -0.0865550342    0.0625075145
H        0.0863575477    0.0823219195    2.5150183737
C        1.9669692172   -0.9570638609    4.2318026208
O        2.9798986341   -1.1865614993    4.8318058916
O        0.8201798788   -0.6788194542    4.8963881059
H        0.0378185925   -0.9607088413    4.4072844056
H        3.7987831837   -2.1346418265    2.6149666880
H        3.7551671954   -2.2796951279    0.1422473862
15   

H        1.8958470249   -1.3125077287   -1.1453676610
C        1.9057396568   -1.2419772551   -0.0609630921
C        2.9499780421   -1.8156599830    0.6699167080
C        2.9671772992   -1.7205221035    2.0668718506
C        1.9351403268   -1.0554397000    2.7547952722
C        0.8935596126   -0.4730684758    2.0023556965
C        0.8794326688   -0.5687199027    0.6062337601
H        0.0740212119   -0.1107289647    0.0383788071
H        0.0955354891    0.0802668870    2.4903533945
C        1.9609908645   -0.9456829309    4.2222495775
O        2.9519525252   -1.2278115673    4.8353835352
O        0.8187592339   -0.5923984266    4.8733959186
H        0.0425716754   -1.0278574338    4.5047499681
H        3.7891120978   -2.1644862463    2.6248652252
H        3.7535247822   -2.3330177119    0.1533415198
15   

H        1.9219859088   -1.3339006409   -1.1566115129
C        1.9244084979   -1.2605645646   -0.0723838337
C        2.9607637213   -1.8366235698    0.6679745218
C        2.9681704992   -1.7376297430    2.0649090632
C        1.9345628270   -1.0648770225    2.7430505862
C        0.9005090322   -0.4818433529    1.9810001266
C        0.8957457681   -0.5817021885    0.5852589272
H        0.0954021832   -0.1228544520    0.0110256290
H        0.0999447687    0.0732130395    2.4631306688
C        1.9493363838   -0.9460740059    4.2102333606
O        2.9157964688   -1.2750075839    4.8379326195
O        0.8161977537   -0.5119863117    4.8460295134
H        0.0570666120   -1.0666835643    4.6424416260
H        3.7843996468   -2.1830184473    2.6299484372
H        3.7659087741   -2.3585322700    0.1586069619
15   

H        1.9614647571   -1.3224300495   -1.1733843505
C        1.9526738516   -1.2536172584   -0.0889323163
C        2.9803821703   -1.8339634761    0.6601875148
C        2.9726497719   -1.7413374122    2.0576716542
C        1.9329501601   -1.0694566427    2.7274538928
C        0.9072912559   -0.4834497197    1.9565384240
C        0.9172730889   -0.5772446370    0.5605040427
H        0.1222457806   -0.1165686229   -0.0195395403
H        0.0997830481    0.0659351889    2.4336925769
C        1.9291472176   -0.9585095122    4.1957072780
O        2.8728462897   -1.3253088097    4.8365547622
O        0.8133990387   -0.4410092316    4.8144934309
H        0.0849154923   -1.0676539482    4.8165609711
H        3.7819504499   -2.1906287414    2.6293855475
H        3.7902691663   -2.3546161155    0.1571877978
15   

H        2.0124671042   -1.2864565398   -1.1912259855
C        1.9887860842   -1.2287781343   -0.1063858857
C        3.0061193602   -1.8165355858    0.6511122318
C        2.9781720618   -1.7394001012    2.0493697306
C        1.9290786087   -1.0744423232    2.7116036038
C        0.9136997331   -0.4819058524    1.9321023046
C        0.9434630819   -0.5606413568    0.5354837595
H        0.1549017226   -0.0960633662   -0.0501632315
H        0.0962681218    0.0569011074    2.4044495166
C        1.8997871848   -0.9847667810    4.1816034081
O        2.8238412094   -1.3846559978    4.8327016725
O        0.8135931305   -0.3839986397    4.7813436128
H        0.1343853978   -1.0226276622    5.0130069205
H        3.7788257775   -2.1957544469    2.6274541469
H        3.8230983694   -2.3317364721    0.1541012748
15   

H        2.0645197832   -1.2497808916   -1.2060674633
C        2.0244733997   -1.2045354085   -0.1211522537
C        3.0313963871   -1.7988721484    0.6450825667
C        2.9814342502   -1.7388868351    2.0436502966
C        1.9210715200   -1.0834284433    2.6976861930
C        0.9160197193   -0.4850756946    1.9090873828
C        0.9674222259   -0.5470987365    0.5123207244
H        0.1854484281   -0.0791665247   -0.0793890528
H        0.0874565189    0.0417526431    2.3755845151
C        1.8644636305   -1.0161122555    4.1688072952
O        2.7727895320   -1.4447172497    4.8270557774
O        0.8119089140   -0.3497498152    4.7476210989
H        0.2118246188   -0.9482730340    5.2015791505
H        3.7735149846   -2.2016828985    2.6282177459
H        3.8568862830   -2.3066964903    0.1546817039
15   

H        2.1054630905   -1.2293146952   -1.2160851503
C        2.0505483045   -1.1936016088   -0.1314905677
C        3.0484527179   -1.7918668318    0.6434523211
C        2.9786944378   -1.7449673743    2.0417457571
C        1.9079335465   -1.0974932780    2.6870041801
C        0.9117508494   -0.4960067864    1.8893575864
C        0.9825266576   -0.5455178536    0.4929998914
H        0.2063026561   -0.0760366081   -0.1049738179
H        0.0733163708    0.0209180343    2.3493629175
C        1.8283876185   -1.0446254665    4.1582480503
O        2.7179557128   -1.5064188120    4.8231435473
O        0.8069598146   -0.3320784798    4.7179659736
H        0.3143662119   -0.8554760994    5.3592634566
H        3.7635667416   -2.2116501619    2.6327670028
H        3.8820118729   -2.2931010477    0.1600464800
15   

H        2.1395103448   -1.2160500724   -1.2221904162
C        2.0722388203   -1.1858927477   -0.1381392578
C        3.0670561118   -1.7782284284    0.6453620166
C        2.9811091618   -1.7386662390    2.0430524458
C        1.8969737412   -1.1044937200    2.6790795226
C        0.9035606825   -0.5098791721    1.8727678059
C        0.9907004726   -0.5516392214    0.4771425142
H        0.2160999801   -0.0875747666   -0.1271112502
H        0.0537559589   -0.0056932612    2.3261862942
C        1.7990665535   -1.0595178949    4.1496603314
O        2.6824184080   -1.5241133775    4.8236025509
O        0.7732467616   -0.3583028982    4.6950932323
H        0.4261062690   -0.8001900064    5.4800685747
H        3.7633095995   -2.2012041747    2.6407307050
H        3.9105165353   -2.2695180602    0.1690295291
15   

H        2.1597708770   -1.2033964750   -1.2262336916
C        2.0832734943   -1.1788244069   -0.1426622774
C        3.0755153833   -1.7681126240    0.6464388859
C        2.9774434614   -1.7359833831    2.0435512144
C        1.8837196086   -1.1121796693    2.6732774549
C        0.8926068027   -0.5213403419    1.8614183400
C        0.9918908684   -0.5555253176    0.4664158511
H        0.2186557265   -0.0946659536   -0.1420084174
H        0.0346214047   -0.0271828037    2.3105994186
C        1.7732893668   -1.0739759448    4.1431246634
O        2.6438080444   -1.5545251973    4.8245058725
O        0.7399032048   -0.3917489861    4.6808940055
H        0.5371981302   -0.7272174910    5.5654997440
H        3.7573436415   -2.1965556041    2.6456726086
H        3.9261456388   -2.2515679724    0.1748892227
15   

H        2.1789666711   -1.1891783093   -1.2286798869
C        2.0952158619   -1.1693737647   -0.1455524696
C        3.0879682025   -1.7519977198    0.6479200388
C        2.9803164857   -1.7262606256    2.0444846753
C        1.8762592842   -1.1158456632    2.6690379122
C        0.8843832903   -0.5322793075    1.8529577497
C        0.9934513601   -0.5596209570    0.4585602703
H        0.2193251067   -0.1046446074   -0.1531445135
H        0.0177766411   -0.0501304838    2.2987464094
C        1.7556163487   -1.0842057432    4.1380139996
O        2.6168335977   -1.5726145196    4.8267461092
O        0.6983563091   -0.4452919620    4.6712270085
H        0.6316778721   -0.6531536498    5.6154453424
H        3.7600926808   -2.1822251146    2.6502286472
H        3.9461101158   -2.2257387734    0.1801522866
15   

H        2.1947375377   -1.1718994197   -1.2287321792
C        2.1059674528   -1.1574191055   -0.1459220192
C        3.1015893314   -1.7322260294    0.6496946835
C        2.9872788682   -1.7136387348    2.0458615427
C        1.8733664175   -1.1187168879    2.6677320591
C        0.8783521180   -0.5435258993    1.8495566841
C        0.9943766983   -0.5631389069    0.4556082401
H        0.2175955705   -0.1149158385   -0.1577180993
H        0.0034217754   -0.0748249744    2.2934683636
C        1.7453979085   -1.0948666235    4.1361303246
O        2.6008502046   -1.5892391563    4.8282333557
O        0.6573499088   -0.5109972470    4.6661220628
H        0.6999389110   -0.5653211222    5.6333332705
H        3.7687697972   -2.1642753590    2.6533679400
H        3.9668079118   -2.1948620938    0.1838599720
15   

H        2.2009821471   -1.1492784916   -1.2274091797
C        2.1103882784   -1.1418748221   -0.1446768216
C        3.1112077181   -1.7098789564    0.6492615968
C        2.9944054279   -1.7007244014    2.0452979342
C        1.8725225133   -1.1226136450    2.6688219877
C        0.8719831242   -0.5547476758    1.8522414391
C        0.9908373128   -0.5643551656    0.4584088985
H        0.2096732414   -0.1221332753   -0.1537023408
H       -0.0099697072   -0.1004094834    2.2971438239
C        1.7418525834   -1.1091454935    4.1372193448
O        2.5956212908   -1.6110535645    4.8255198551
O        0.6233568342   -0.5811941972    4.6668987331
H        0.7380839982   -0.4603478616    5.6215896631
H        3.7795791581   -2.1469071588    2.6513535843
H        3.9821293503   -2.1604602386    0.1822318103
15   

H        2.2026977567   -1.1256015354   -1.2237546172
C        2.1119332058   -1.1268848205   -0.1410068158
C        3.1182429435   -1.6906776151    0.6489068483
C        3.0011358432   -1.6930444688    2.0449203101
C        1.8732985101   -1.1310634306    2.6726769241
C        0.8668929159   -0.5679394236    1.8599345647
C        0.9863270037   -0.5656079853    0.4660952716
H        0.2005685695   -0.1274447522   -0.1430522473
H       -0.0207104023   -0.1274573849    2.3074054575
C        1.7425057022   -1.1297618481    4.1413487381
O        2.5948292523   -1.6432847721    4.8216789977
O        0.5999696414   -0.6453359559    4.6728183693
H        0.7515957899   -0.3386902404    5.5778783972
H        3.7903771502   -2.1366875676    2.6475812348
H        3.9934775275   -2.1295433450    0.1787778346
15   

H        2.2024824173   -1.1019439936   -1.2185553590
C        2.1119022740   -1.1140235328   -0.1358498773
C        3.1223021459   -1.6781166788    0.6485532919
C        3.0053602373   -1.6947196003    2.0444542767
C        1.8737105956   -1.1466520082    2.6777359344
C        0.8627480798   -0.5838444150    1.8704088093
C        0.9821272249   -0.5671844131    0.4766447680
H        0.1928266354   -0.1297625140   -0.1284593781
H       -0.0290772251   -0.1558081696    2.3213994215
C        1.7438508674   -1.1595768666    4.1464720475
O        2.5897002815   -1.6921276373    4.8182492012
O        0.5891191364   -0.6919566598    4.6844649821
H        0.7563617458   -0.2017551547    5.4991357891
H        3.7976015537   -2.1390583915    2.6427141615
H        4.0004581865   -2.1065310204    0.1742256185
15   

H        2.1953609927   -1.0663982881   -1.2108954603
C        2.1066650166   -1.0919040302   -0.1282510362
C        3.1239640830   -1.6550193836    0.6478125497
C        3.0094443373   -1.6892374783    2.0435219240
C        1.8734311848   -1.1600171808    2.6850123648
C        0.8549391716   -0.5989626896    1.8860768340
C        0.9721566395   -0.5643113790    0.4924001361
H        0.1772350164   -0.1287164979   -0.1066537976
H       -0.0417702412   -0.1876471939    2.3427171907
C        1.7466811696   -1.1926938506    4.1535312613
O        2.5937540428   -1.7314971790    4.8159724646
O        0.5843044840   -0.7355723178    4.7051138892
H        0.7466948565   -0.0720224771    5.3842213722
H        3.8068014901   -2.1332931184    2.6352647918
H        4.0054387590   -2.0694183077    0.1671736606
15   

H        2.1905477734   -1.0213880658   -1.1987903034
C        2.1017210045   -1.0645463925   -0.1166909316
C        3.1207559424   -1.6369315983    0.6502437796
C        3.0057333057   -1.6948542493    2.0450559425
C        1.8682750644   -1.1791159251    2.6946407912
C        0.8474456824   -0.6093580371    1.9051304510
C        0.9649111055   -0.5516563621    0.5121772720
H        0.1680548869   -0.1106963751   -0.0803921375
H       -0.0525486379   -0.2119842353    2.3675035791
C        1.7415560525   -1.2388603941    4.1617148102
O        2.5707986420   -1.8107868799    4.8154003260
O        0.6010662935   -0.7318610651    4.7354519092
H        0.7746081666    0.0716806668    5.2340629708
H        3.8038329505   -2.1467414163    2.6299714262
H        4.0036893914   -2.0406510952    0.1631593596
15   

H        2.1933773017   -0.9585888487   -1.1807849880
C        2.1027729562   -1.0221948816   -0.0998082303
C        3.1220295273   -1.6064669163    0.6578008162
C        3.0042613122   -1.6921128629    2.0508730731
C        1.8645695245   -1.1913452595    2.7078769229
C        0.8429085956   -0.6101935070    1.9280132241
C        0.9629537922   -0.5253123045    0.5366064385
H        0.1652595803   -0.0772856229   -0.0495677167
H       -0.0614264874   -0.2288809427    2.3953440787
C        1.7335516212   -1.2860274488    4.1720040923
O        2.5470794022   -1.8862187993    4.8167186007
O        0.6300193536   -0.7166803774    4.7707449260
H        0.8012632659    0.1859191574    5.0515072455
H        3.8016589422   -2.1543681708    2.6287695233
H        4.0068323135   -1.9987516163    0.1647051927
15   

H        2.1960986275   -0.8972110342   -1.1598415512
C        2.1040389521   -0.9793058562   -0.0801961733
C        3.1227983119   -1.5758695661    0.6684076739
C        3.0027447494   -1.6868027005    2.0594081331
C        1.8620051782   -1.1980368736    2.7233573354
C        0.8401409173   -0.6051536542    1.9526602014
C        0.9623439730   -0.4955704992    0.5631037972
H        0.1643426219   -0.0402849031   -0.0171118890
H       -0.0679742794   -0.2380988047    2.4240059853
C        1.7266546409   -1.3254933139    4.1840171593
O        2.5229916889   -1.9593575847    4.8163591587
O        0.6772039887   -0.6878346228    4.8066287560
H        0.8181736138    0.2612559474    4.8588873728
H        3.7989622303   -2.1598043501    2.6303671697
H        4.0085899279   -1.9589601575    0.1697899495
15   

H        2.1842838371   -0.8585716485   -1.1414696607
C        2.0943911782   -0.9525366340   -0.0625703973
C        3.1143847145   -1.5582443360    0.6768468253
C        2.9970435254   -1.6853285097    2.0665811821
C        1.8585852530   -1.2025974457    2.7386679405
C        0.8345070947   -0.6014887062    1.9771893043
C        0.9539591846   -0.4762348112    0.5886179033
H        0.1545042076   -0.0157797095    0.0144334230
H       -0.0748366476   -0.2435732069    2.4530366658
C        1.7265393064   -1.3498761132    4.1973771368
O        2.5034087052   -2.0224237029    4.8141474954
O        0.7378277358   -0.6540267079    4.8415011394
H        0.8070926336    0.2927333846    4.6857291610
H        3.7938461228   -2.1659220055    2.6305014814
H        3.9988845099   -1.9363381192    0.1720619648
15   

H        2.1519456062   -0.8483873892   -1.1305822081
C        2.0684023045   -0.9471891209   -0.0515713534
C        3.0908369613   -1.5603854540    0.6780508667
C        2.9819746175   -1.6937067306    2.0677289474
C        1.8505826543   -1.2086843573    2.7499159431
C        0.8228018560   -0.6013048839    1.9982718717
C        0.9337151928   -0.4703480892    0.6093680554
H        0.1321169454   -0.0054474985    0.0417323801
H       -0.0838838085   -0.2448960403    2.4799959561
C        1.7320799397   -1.3605367496    4.2090372779
O        2.4827995999   -2.0780554326    4.8083043997
O        0.8064534336   -0.6146942322    4.8726871738
H        0.7703461006    0.2910990003    4.5467632775
H        3.7807972378   -2.1795561450    2.6243889341
H        3.9708255196   -1.9392084581    0.1658891930
15   

H        2.1034279685   -0.8647321248   -1.1265610489
C        2.0299446016   -0.9618844155   -0.0466427671
C        3.0549657519   -1.5824812084    0.6727593332
C        2.9596145527   -1.7129567679    2.0635117854
C        1.8403924870   -1.2166605867    2.7574640617
C        0.8086376110   -0.6030552069    2.0161182096
C        0.9059071736   -0.4755938972    0.6256806341
H        0.1022856289   -0.0056269019    0.0650846566
H       -0.0911833063   -0.2394316472    2.5047689659
C        1.7446312744   -1.3600023303    4.2189677666
O        2.4629322401   -2.1234549509    4.8019628397
O        0.8796504269   -0.5710367319    4.8998210819
H        0.7136785513    0.2641547569    4.4462994831
H        3.7609916083   -2.2031278596    2.6127856943
H        3.9269209230   -1.9684238530    0.1521628342
15   

H        2.0483716500   -0.9004103648   -1.1277967503
C        1.9860115096   -0.9912922797   -0.0466180185
C        3.0102239844   -1.6234077550    0.6635123585
C        2.9298571132   -1.7445981542    2.0558592316
C        1.8278834663   -1.2264035148    2.7613005454
C        0.7957476844   -0.6018671616    2.0292944565
C        0.8776483299   -0.4847290873    0.6367657816
H        0.0748301100   -0.0057047331    0.0827150932
H       -0.0926448689   -0.2202693630    2.5243671513
C        1.7595380070   -1.3521456080    4.2260588572
O        2.4386596347   -2.1607815522    4.7957903969
O        0.9540626887   -0.5217672158    4.9195987469
H        0.6435407285    0.2201966115    4.3848134531
H        3.7315663152   -2.2416882793    2.5984803261
H        3.8706038935   -2.0242027759    0.1348839932
15   

H        1.9917913149   -0.9392917113   -1.1330658799
C        1.9428054633   -1.0198662825   -0.0503772186
C        2.9616868819   -1.6703966601    0.6501048824
C        2.8991580076   -1.7770342073    2.0443351336
C        1.8214338659   -1.2257538898    2.7626950468
C        0.7944338258   -0.5812689227    2.0399399492
C        0.8580568013   -0.4798260839    0.6450023610
H        0.0601673615    0.0153255226    0.0980783915
H       -0.0754946116   -0.1674585965    2.5406505153
C        1.7842938436   -1.3319329438    4.2312348889
O        2.4463763271   -2.1623277464    4.7902588936
O        1.0071194014   -0.4880788124    4.9361972834
H        0.5258321485    0.1307977126    4.3713620098
H        3.6984682375   -2.2865867117    2.5789348624
H        3.8049746306   -2.0954895682    0.1129514324
