15   

H        2.1271734993   -1.0610761205   -1.2209000660
C        1.9701880074   -1.0475306604   -0.1458256091
C        3.0517400089   -1.2090819932    0.7250415185
C        2.8496035073   -1.1921327329    2.1114852719
C        1.5750217493   -1.0076583079    2.6408529889
C        0.4892273827   -0.8565668176    1.7591057536
C        0.6850900377   -0.8725848571    0.3736021915
H       -0.1620525661   -0.7512161105   -0.2955417412
H       -0.5139387204   -0.7261740534    2.1592543471
C        1.3363139185   -1.0078945632    4.1002347776
O        0.2532049108   -1.1124393342    4.6203504509
O        2.4619676967   -0.8943820800    4.8444944942
H        2.1477969600   -0.9106864504    5.7603535104
H        3.7100954650   -1.3264421285    2.7621010013
H        4.0522035615   -1.3500578718    0.3259820638
15   

H        2.1246472401   -1.0335681226   -1.2187905191
C        1.9683865040   -1.0309929306   -0.1435298094
C        3.0460703574   -1.2339598338    0.7240858390
C        2.8439185366   -1.2315988433    2.1105081007
C        1.5758451323   -1.0141948099    2.6412102956
C        0.4920431527   -0.8312815660    1.7648196881
C        0.6874088830   -0.8324315560    0.3789791891
H       -0.1568540135   -0.6835928407   -0.2882414963
H       -0.5072725948   -0.6894838165    2.1703958230
C        1.3412519635   -1.0533571554    4.1018528964
O        0.3073808204   -1.3862309155    4.6242305881
O        2.4261711320   -0.7149005111    4.8376100757
H        2.1290453903   -0.7916134407    5.7560133897
H        3.6941522711   -1.4007105494    2.7666543668
H        4.0421658616   -1.3970851303    0.3225687326
15   

H        2.1177430953   -1.0081098492   -1.2164901280
C        1.9639218618   -1.0165902216   -0.1409080651
C        3.0381700399   -1.2616045256    0.7207711810
C        2.8382667866   -1.2736982318    2.1073376471
C        1.5785392440   -1.0245961847    2.6418248852
C        0.4961126178   -0.8062937341    1.7737735705
C        0.6889138677   -0.7926179163    0.3874298986
H       -0.1526154771   -0.6144557296   -0.2760297520
H       -0.4981077458   -0.6504706703    2.1861041115
C        1.3535862452   -1.0994281784    4.1052591957
O        0.4186322885   -1.6454844608    4.6319319426
O        2.3541332560   -0.5472846092    4.8298364315
H        2.0881517466   -0.6791133859    5.7514194493
H        3.6787827088   -1.4750821934    2.7669420411
H        4.0284889317   -1.4467075723    0.3145410722
15   

H        2.1067586906   -0.9837343720   -1.2155328065
C        1.9581488757   -1.0062314838   -0.1394204056
C        3.0296469232   -1.2973336297    0.7117965575
C        2.8360211088   -1.3272371152    2.0988945858
C        1.5870224546   -1.0499659896    2.6422061447
C        0.5058384125   -0.7862552665    1.7866920636
C        0.6923813525   -0.7543644611    0.3996199476
H       -0.1466354194   -0.5407648080   -0.2565031731
H       -0.4808956941   -0.6098538997    2.2079200346
C        1.3771912808   -1.1498826846    4.1105338262
O        0.5893811345   -1.8830960933    4.6473983084
O        2.2370566387   -0.3838099698    4.8190275493
H        2.0116244100   -0.5557812981    5.7446684723
H        3.6699107166   -1.5622609113    2.7556354897
H        4.0120815167   -1.5040915784    0.2969651295
15   

H        2.0896327497   -0.9507973013   -1.2157594784
C        1.9514566362   -0.9933203353   -0.1388611441
C        3.0217368144   -1.3390518087    0.6934669572
C        2.8415329041   -1.3943200049    2.0815640886
C        1.6068408550   -1.0943136274    2.6431597313
C        0.5275817668   -0.7671176463    1.8080125461
C        0.7008671380   -0.7096805178    0.4199554966
H       -0.1361631390   -0.4497554370   -0.2218172970
H       -0.4463828877   -0.5603791029    2.2442918113
C        1.4183718898   -1.2028539988    4.1181781231
O        0.8236936331   -2.0837055336    4.6786978889
O        2.0538754706   -0.2230826740    4.7977098416
H        1.8716576338   -0.4128181272    5.7292542671
H        3.6732220140   -1.6688499487    2.7254210317
H        3.9926307171   -1.5674593449    0.2631027563
15   

H        2.0780869030   -0.9098247688   -1.2148586088
C        1.9525835477   -0.9734706360   -0.1374505089
C        3.0178275927   -1.3854871661    0.6707002861
C        2.8537545594   -1.4680159714    2.0594546257
C        1.6377601395   -1.1415041076    2.6452017903
C        0.5679591599   -0.7298468668    1.8353317976
C        0.7247767163   -0.6452632209    0.4467129157
H       -0.1065118329   -0.3263709582   -0.1756232655
H       -0.3858865238   -0.4777536488    2.2914383296
C        1.4730089987   -1.2405544486    4.1258747246
O        1.1012532053   -2.2147593928    4.7218263265
O        1.7928660768   -0.0917309692    4.7602209328
H        1.6470277472   -0.2803551169    5.6983165601
H        3.6824125344   -1.7907054728    2.6845548192
H        3.9726394393   -1.6427916955    0.2210765858
15   

H        2.0619300154   -0.8790495748   -1.2142884373
C        1.9514688824   -0.9557138811   -0.1360819132
C        3.0114372451   -1.4250710019    0.6471003799
C        2.8664447572   -1.5247666222    2.0368281587
C        1.6710777304   -1.1693990617    2.6487218174
C        0.6126023807   -0.6836220314    1.8642054444
C        0.7500734138   -0.5820559450    0.4747113981
H       -0.0749029670   -0.2118189313   -0.1272487338
H       -0.3175967808   -0.3865710348    2.3416220826
C        1.5383119488   -1.2544280516    4.1318157707
O        1.4097146879   -2.2666544531    4.7662480239
O        1.5123007604   -0.0369476077    4.7172106784
H        1.4075068918   -0.2213765776    5.6616544403
H        3.6920747527   -1.8895828554    2.6426977214
H        3.9478265592   -1.7126185218    0.1774794451
15   

H        2.0487282849   -0.8846210244   -1.2172488971
C        1.9501733060   -0.9588595512   -0.1377204861
C        3.0022850106   -1.4686811667    0.6303329532
C        2.8726607065   -1.5653425127    2.0217252364
C        1.6979208442   -1.1710126480    2.6518016138
C        0.6503152331   -0.6382453963    1.8810806469
C        0.7728985533   -0.5398082559    0.4900044764
H       -0.0447275473   -0.1354385047   -0.0998981960
H       -0.2602933343   -0.3018335026    2.3702923878
C        1.5964290045   -1.2427548451    4.1339544843
O        1.7085418184   -2.2410864406    4.7950790157
O        1.2701426016   -0.0543672014    4.6902017765
H        1.2142083541   -0.2364197763    5.6393666035
H        3.6927049469   -1.9612305447    2.6159929718
H        3.9210358647   -1.7898441843    0.1478198370
15   

H        2.0333481727   -0.9131399333   -1.2227800102
C        1.9445722980   -0.9746811457   -0.1416053901
C        2.9880041120   -1.5117232916    0.6193108885
C        2.8713850995   -1.5919213787    2.0127836059
C        1.7174240984   -1.1528007744    2.6543384806
C        0.6776825262   -0.5944717832    1.8881686871
C        0.7885130377   -0.5127326865    0.4950170272
H       -0.0224195275   -0.0880492460   -0.0898372142
H       -0.2191297288   -0.2253041790    2.3794632647
C        1.6441545613   -1.2154775829    4.1344176728
O        1.9849076384   -2.1537229375    4.8074671940
O        1.0718748139   -0.1194488823    4.6837195211
H        1.0708123000   -0.2971128885    5.6354745585
H        3.6854929510   -2.0098006957    2.6006347332
H        3.8902879067   -1.8671374043    0.1297716457
15   

H        2.0177215126   -0.9530386328   -1.2296521011
C        1.9381291523   -0.9963333358   -0.1468787830
C        2.9725888568   -1.5530641079    0.6115626658
C        2.8683765349   -1.6096800419    2.0070876944
C        1.7361895746   -1.1234446828    2.6558132027
C        0.7023971046   -0.5507017948    1.8890972616
C        0.8022461141   -0.4928421903    0.4939286925
H       -0.0027079910   -0.0551391384   -0.0896011323
H       -0.1835729238   -0.1515383928    2.3766152417
C        1.6838699788   -1.1792633719    4.1339537702
O        2.2303402313   -2.0124054923    4.8120087637
O        0.9059726264   -0.2185083386    4.6851733916
H        0.9568714097   -0.3830071332    5.6380261047
H        3.6777040709   -2.0441232058    2.5899185190
H        3.8587785177   -1.9425880097    0.1185777699
15   

H        1.9967623890   -0.9985488438   -1.2355066696
C        1.9271955735   -1.0218994520   -0.1514282886
C        2.9532646151   -1.5945606853    0.6058808626
C        2.8626774277   -1.6251127168    2.0031200482
C        1.7537231703   -1.0925346466    2.6572694761
C        0.7245635736   -0.5100195890    1.8889142571
C        0.8119452773   -0.4783032625    0.4920856443
H        0.0122840751   -0.0302803058   -0.0909041261
H       -0.1498626517   -0.0810753956    2.3718313623
C        1.7167859944   -1.1395533839    4.1348693982
O        2.4373567390   -1.8226228019    4.8195694351
O        0.7649311633   -0.3497072502    4.6851519014
H        0.8588006652   -0.4876086032    5.6390228206
H        3.6683853195   -2.0734524038    2.5805920340
H        3.8229864706   -2.0170559003    0.1107123030
15   

H        1.9716838256   -1.0475018288   -1.2388639987
C        1.9132133728   -1.0499014709   -0.1538816204
C        2.9316319804   -1.6363231627    0.6029275404
C        2.8559176633   -1.6392787990    2.0013721641
C        1.7711758701   -1.0614683951    2.6583320889
C        0.7462428403   -0.4710201599    1.8892632645
C        0.8193502706   -0.4666598929    0.4912754702
H        0.0247347278   -0.0093774294   -0.0914311730
H       -0.1134979944   -0.0118416365    2.3706635378
C        1.7452535820   -1.0947464362    4.1362315885
O        2.6010901807   -1.5895811598    4.8276185173
O        0.6531705551   -0.5093032188    4.6816360786
H        0.7779856587   -0.6089903826    5.6367401867
H        3.6566943144   -2.0997823985    2.5761517959
H        3.7841533859   -2.0910886391    0.1064277863
15   

H        1.9428083279   -1.0963257517   -1.2386207496
C        1.8962408858   -1.0779957917   -0.1532147330
C        2.9074102575   -1.6776606967    0.6032335792
C        2.8472829559   -1.6530115717    2.0022310415
C        1.7877701653   -1.0308317694    2.6592356365
C        0.7669194525   -0.4332575282    1.8913605324
C        0.8243409820   -0.4558362689    0.4928024611
H        0.0346412493    0.0102408207   -0.0896116184
H       -0.0752432169    0.0541578834    2.3761404035
C        1.7680236527   -1.0466950957    4.1378279895
O        2.7114770644   -1.3258307833    4.8353945750
O        0.5776514797   -0.6891162782    4.6743416086
H        0.7186256857   -0.7416484885    5.6309317175
H        3.6406252405   -2.1237622689    2.5789886772
H        3.7419411433   -2.1639323182    0.1060330891
15   

H        1.9153641562   -1.1385417877   -1.2355605120
C        1.8803414748   -1.1010625537   -0.1502144133
C        2.8824905430   -1.7163503729    0.6063618059
C        2.8371716160   -1.6662333475    2.0052864486
C        1.8045831785   -0.9994947031    2.6597614547
C        0.7894773481   -0.3928857182    1.8941242473
C        0.8314072226   -0.4399932845    0.4956123027
H        0.0476219030    0.0360743427   -0.0866954486
H       -0.0337940908    0.1199069897    2.3852615694
C        1.7840533419   -0.9976994261    4.1397371598
O        2.7616547916   -1.0494982360    4.8426783265
O        0.5419984231   -0.8781428196    4.6641638914
H        0.6825570040   -0.8801506159    5.6221921197
H        3.6205535627   -2.1476981302    2.5866194663
H        3.6978778009   -2.2341902200    0.1092897801
15   

H        1.8897884904   -1.1733117263   -1.2310667737
C        1.8653334789   -1.1182844005   -0.1461792303
C        2.8555595615   -1.7517523920    0.6116652859
C        2.8236111673   -1.6785019759    2.0100256110
C        1.8194261163   -0.9679417384    2.6602269800
C        0.8133159796   -0.3486615989    1.8959988916
C        0.8408644181   -0.4178542128    0.4980397663
H        0.0649308090    0.0702587501   -0.0847937461
H        0.0095145016    0.1890701407    2.3926628280
C        1.7934632355   -0.9448832003    4.1430370010
O        2.7502839752   -0.7666230362    4.8516483970
O        0.5468180376   -1.0710145502    4.6534115601
H        0.6708104907   -1.0220404519    5.6123853288
H        3.5954064998   -2.1730652265    2.5954338569
H        3.6506068658   -2.3015120346    0.1159354902
15   

H        1.8737395107   -1.2017560140   -1.2273502527
C        1.8548441563   -1.1316264359   -0.1432234902
C        2.8264987018   -1.7872613679    0.6201856189
C        2.8015836751   -1.6941567534    2.0176222523
C        1.8244835839   -0.9416422295    2.6591073548
C        0.8359084424   -0.3018934648    1.8917938431
C        0.8555569869   -0.3900062238    0.4947757636
H        0.0933599321    0.1148181802   -0.0919272891
H        0.0524911708    0.2650286956    2.3883476640
C        1.7910699962   -0.8900048866    4.1451899715
O        2.6770102737   -0.4859195492    4.8509845332
O        0.5974157116   -1.2735575002    4.6513677115
H        0.6959094419   -1.1757376569    5.6094469955
H        3.5577835315   -2.2057506390    2.6082045958
H        3.6011896091   -2.3695058885    0.1293566842
15   

H        1.8759942434   -1.2160236245   -1.2250215942
C        1.8528324811   -1.1344743676   -0.1417757140
C        2.7940655891   -1.8190166487    0.6345525902
C        2.7635605273   -1.7112254378    2.0308891714
C        1.8088804705   -0.9196584023    2.6566764989
C        0.8545996223   -0.2450485717    1.8781747291
C        0.8795040129   -0.3474881733    0.4821827737
H        0.1425633736    0.1822970054   -0.1146954676
H        0.0943203082    0.3599500454    2.3653999983
C        1.7699864762   -0.8345619914    4.1451889787
O        2.5399579867   -0.2183024690    4.8314923067
O        0.7111689705   -1.4888467440    4.6709640052
H        0.7857290157   -1.3482301439    5.6257611516
H        3.4961621526   -2.2446379554    2.6313886690
H        3.5494041150   -2.4346844455    0.1544804897
15   

H        1.9106463723   -1.2132797987   -1.2245240877
C        1.8684753376   -1.1259018418   -0.1423056261
C        2.7633788530   -1.8466282611    0.6560121877
C        2.7082077333   -1.7317931572    2.0510529156
C        1.7676188039   -0.9061614372    2.6526979286
C        0.8706338844   -0.1813078352    1.8528038434
C        0.9201930173   -0.2911094876    0.4579934567
H        0.2238366749    0.2723218967   -0.1565536678
H        0.1363159630    0.4686377721    2.3215827339
C        1.7235761227   -0.7864501195    4.1403386036
O        2.3327034541    0.0170083868    4.7929140153
O        0.9060189638   -1.6989712698    4.7090252457
H        0.9623961497   -1.5211176232    5.6587941577
H        3.4062957051   -2.2911159075    2.6686159108
H        3.5024427604   -2.4949348133    0.1939343728
15   

H        1.9514645479   -1.2011997117   -1.2237351928
C        1.8846899696   -1.1143216265   -0.1427152001
C        2.7255967025   -1.8757491870    0.6763720522
C        2.6387926198   -1.7617487095    2.0698606993
C        1.7112838138   -0.9050314319    2.6491887415
C        0.8813308540   -0.1260151684    1.8284330294
C        0.9626089485   -0.2353230541    0.4350648539
H        0.3135593280    0.3652814781   -0.1958565640
H        0.1751522540    0.5660344359    2.2801704559
C        1.6627618949   -0.7599451383    4.1322855712
O        2.0749866191    0.1840223909    4.7509295601
O        1.1553107471   -1.8515608644    4.7458395224
H        1.1933941539   -1.6420426887    5.6901009745
H        3.2972821500   -2.3501701460    2.7037195016
H        3.4482949861   -2.5539637307    0.2316805426
15   

H        1.9884389891   -1.1981663035   -1.2223627722
C        1.8991898988   -1.1130834839   -0.1428237923
C        2.6940577962   -1.9055251432    0.6924247506
C        2.5786775198   -1.7936236373    2.0840394834
C        1.6632464380   -0.9118247996    2.6466060274
C        0.8864810227   -0.0964131818    1.8086645400
C        0.9964015390   -0.2033858814    0.4171694237
H        0.3858388775    0.4242433519   -0.2257662563
H        0.1995394668    0.6233050583    2.2471980002
C        1.5962172013   -0.7529411735    4.1231769655
O        1.7812278409    0.2768966197    4.7161987547
O        1.3883432885   -1.9219420908    4.7700343646
H        1.3885116012   -1.6850561350    5.7086982879
H        3.2045983714   -2.4055511869    2.7287754309
H        3.4041944165   -2.6057712133    0.2618749694
15   

H        2.0149314690   -1.1944360345   -1.2224247775
C        1.9110673534   -1.1123789611   -0.1439589489
C        2.6681612265   -1.9321751061    0.6994125375
C        2.5343907127   -1.8244161650    2.0897965145
C        1.6372851376   -0.9181310888    2.6452160037
C        0.8985796167   -0.0768995655    1.7970061090
C        1.0272173671   -0.1795075601    0.4069586114
H        0.4454681674    0.4694567166   -0.2415052225
H        0.2252788731    0.6605290087    2.2278618067
C        1.5411137294   -0.7595713251    4.1160844188
O        1.4896788121    0.2955801061    4.6937603843
O        1.5887096683   -1.9344690543    4.7856506831
H        1.5334177121   -1.6844641409    5.7193961453
H        3.1353330025   -2.4599816972    2.7355714681
H        3.3639672265   -2.6510263872    0.2761816468
15   

H        2.0401966662   -1.1866166110   -1.2236655030
C        1.9256940944   -1.1083636696   -0.1459942729
C        2.6489176148   -1.9537232334    0.7011597300
C        2.5017324774   -1.8517468180    2.0907549812
C        1.6270710150   -0.9213588956    2.6441673895
C        0.9177714055   -0.0597306481    1.7893952898
C        1.0602964114   -0.1566432065    0.4005045271
H        0.5019777639    0.5104156535   -0.2502097039
H        0.2537897945    0.6897961454    2.2143288965
C        1.4956788248   -0.7734899047    4.1107672385
O        1.2113706235    0.2520767369    4.6764130352
O        1.7686295313   -1.9065716993    4.7996537874
H        1.6502149972   -1.6594046401    5.7283731585
H        3.0806724387   -2.5125273210    2.7312405344
H        3.3291005211   -2.6893796030    0.2814062086
15   

H        2.0648546854   -1.1740151588   -1.2244974877
C        1.9406967512   -1.1009767072   -0.1475280342
C        2.6308867102   -1.9717979798    0.7007474128
C        2.4713770199   -1.8775965807    2.0896518253
C        1.6211151905   -0.9241232014    2.6435138155
C        0.9377967118   -0.0436201001    1.7849997405
C        1.0931463916   -0.1330593189    0.3971575357
H        0.5565642924    0.5511417932   -0.2540590607
H        0.2815477607    0.7154938726    2.2051743331
C        1.4546560578   -0.7934231178    4.1070663019
O        0.9511230189    0.1524037904    4.6606374231
O        1.9392651884   -1.8416823161    4.8143220259
H        1.7607591907   -1.6121200365    5.7380122276
H        3.0265197520   -2.5652936966    2.7226411425
H        3.2946106325   -2.7230502271    0.2822494064
15   

H        2.1248479445   -1.0886096332   -1.2217068563
C        1.9689205350   -1.0630878736   -0.1466950738
C        3.0551203916   -1.1833803409    0.7247592590
C        2.8547364967   -1.1505359610    2.1112145931
C        1.5758198306   -0.9981885517    2.6410089043
C        0.4868535481   -0.8776673121    1.7576335754
C        0.6811191653   -0.9097912904    0.3722463127
H       -0.1692853224   -0.8155214416   -0.2971323601
H       -0.5184873211   -0.7580303449    2.1557491109
C        1.3386134267   -0.9604966406    4.0999134626
O        0.2563915372   -0.8311031359    4.6169866066
O        2.4596394798   -1.0856136459    4.8494203486
H        2.1436198290   -1.0425286266    5.7637993728
H        3.7224386981   -1.2469562559    2.7588657587
H        4.0585607839   -1.3027877310    0.3261256774
