23   
torsion grid (-165,)
H        1.8338790498    0.8489039733   -0.4926973364
C        1.8414991123    0.0903802564    0.2753171873
C        3.0347068406   -0.5017098683    0.6539027666
C        3.0536881189   -1.4730999754    1.6376398069
C        1.8666951059   -1.8504972148    2.2574979589
C        0.6662468664   -1.2665277515    1.8684148212
C        0.6585278339   -0.3003094730    0.8796955607
H       -0.2762907232    0.1516260850    0.5831785029
H       -0.2469525784   -1.5835095401    2.3477706241
O        1.8087205733   -2.8575646136    3.1885201410
C        2.7086842773   -2.9181332762    4.2166612636
C        3.4703258215   -1.8383625240    4.6496940293
C        4.3106924186   -1.9862593407    5.7388672470
C        4.3924137067   -3.1938216905    6.4092394858
C        3.6139533606   -4.2613215670    5.9919472214
C        2.7726594424   -4.1274398995    4.9055432880
H        2.1579062668   -4.9473369572    4.5683080726
H        3.6609302194   -5.2040420619    6.5165398743
H        5.0522589261   -3.3005160717    7.2567043383
H        4.9006540786   -1.1433452562    6.0676317873
H        3.3963558523   -0.8850218506    4.1472225921
H        3.9810835781   -1.9491129182    1.9216468288
H        3.9589576341   -0.2113111584    0.1764863976
23   
torsion grid (-150,)
H        1.9336317967    0.6848460667   -0.6186793660
C        1.8899325981   -0.0076391402    0.2081766179
C        3.0504714467   -0.5884478625    0.6899576220
C        3.0056073022   -1.4754554636    1.7500271894
C        1.7841408735   -1.7797265546    2.3416656019
C        0.6152165899   -1.2061542648    1.8502329198
C        0.6724852039   -0.3252346049    0.7875043832
H       -0.2380015002    0.1181168918    0.4125414921
H       -0.3244887312   -1.4662489120    2.3121062429
O        1.6507896040   -2.6956963117    3.3518690024
C        2.6285398681   -2.8330637193    4.3015353548
C        3.3912281769   -1.7669684008    4.7669201517
C        4.3147824268   -1.9735798761    5.7753184154
C        4.4801113751   -3.2308682866    6.3303749070
C        3.7072726252   -4.2876065283    5.8780291021
C        2.7847350655   -4.0947220933    4.8679520753
H        2.1731767159   -4.9061579899    4.5051474607
H        3.8253409742   -5.2695272613    6.3116095000
H        5.2041789601   -3.3851102284    7.1158865084
H        4.9042590142   -1.1418037533    6.1319824266
H        3.2516496875   -0.7813983270    4.3467319775
H        3.9106089202   -1.9401813772    2.1139342211
H        4.0019267884   -0.3557046968    0.2349086533
23   
torsion grid (-135,)
H        2.0109948692    0.5098537844   -0.7231569728
C        1.9294266328   -0.1136185424    0.1542065142
C        3.0629608187   -0.6684916909    0.7222410230
C        2.9693011468   -1.4674339776    1.8474473376
C        1.7237098026   -1.7100529773    2.4161360147
C        0.5807541125   -1.1607039331    1.8413483041
C        0.6887304272   -0.3682525547    0.7153332597
H       -0.2016080230    0.0561442126    0.2757135997
H       -0.3777847186   -1.3700193361    2.2901088464
O        1.5352436913   -2.5271478210    3.4978287522
C        2.5650029394   -2.7429949268    4.3812290478
C        3.3210004669   -1.6989661818    4.9039984462
C        4.3058038975   -1.9667293871    5.8365587828
C        4.5413608249   -3.2660567255    6.2542412670
C        3.7829980273   -4.3029181455    5.7373930288
C        2.7995557608   -4.0475884282    4.7995081962
H        2.1992219310   -4.8438548289    4.3874959609
H        3.9617154946   -5.3178356427    6.0600803551
H        5.3120928691   -3.4687033223    6.9824168736
H        4.8895590207   -1.1532768478    6.2414784548
H        3.1287098216   -0.6864255615    4.5794783324
H        3.8556439629   -1.9091545190    2.2796223065
H        4.0332020055   -0.4841053406    0.2850247285
23   
torsion grid (-120,)
H        2.0522425299    0.2998915183   -0.8315525092
C        1.9478884543   -0.2426587987    0.0957061254
C        3.0635662676   -0.7608424926    0.7285662710
C        2.9408892607   -1.4568856433    1.9182057509
C        1.6839065828   -1.6340015299    2.4847080081
C        0.5585769547   -1.1178977281    1.8461471292
C        0.6950350004   -0.4283010699    0.6581051810
H       -0.1820294620   -0.0305220036    0.1694905557
H       -0.4089458029   -1.2721149915    2.2977435151
O        1.4624753949   -2.3333681477    3.6385629329
C        2.5268918403   -2.6368232578    4.4595042470
C        3.2824618520   -1.6336455783    5.0563306742
C        4.3085100052   -1.9713956250    5.9191665716
C        4.5862835194   -3.3015465957    6.1878777403
C        3.8332972237   -4.2981761131    5.5907187412
C        2.8082267758   -3.9714852102    4.7211528286
H        2.2118354350   -4.7360837552    4.2474838799
H        4.0489912763   -5.3362604625    5.7955772986
H        5.3888990735   -3.5600997478    6.8620129782
H        4.8927002358   -1.1911493830    6.3841684310
H        3.0570925945   -0.5994285277    4.8397796882
H        3.8152782358   -1.8677481472    2.4020176426
H        4.0435225342   -0.6277894034    0.2942587778
23   
torsion grid (-105,)
H        2.0635177914    0.0807659349   -0.9304119334
C        1.9506265408   -0.3785702069    0.0397848917
C        3.0579320753   -0.8593008240    0.7148895514
C        2.9246415998   -1.4495803338    1.9595805963
C        1.6653059972   -1.5587428562    2.5373207122
C        0.5483860944   -1.0772726711    1.8578504034
C        0.6953942477   -0.4924029003    0.6164367264
H       -0.1751977260   -0.1214626504    0.0960554987
H       -0.4206937595   -1.1742245829    2.3217447209
O        1.4348585622   -2.1372330327    3.7537487693
C        2.5158039903   -2.5252475717    4.5221177668
C        3.2503600072   -1.5802348795    5.2281886566
C        4.2940088114   -1.9904251246    6.0374282519
C        4.6091545118   -3.3350771400    6.1414697153
C        3.8772359823   -4.2728722495    5.4331013939
C        2.8333356371   -3.8734545989    4.6177047088
H        2.2538858957   -4.5926450578    4.0588143927
H        4.1227268280   -5.3215944759    5.5102222480
H        5.4250133750   -3.6512025497    6.7740114011
H        4.8632696284   -1.2563133001    6.5880487596
H        2.9949714705   -0.5347811553    5.1359754227
H        3.7931247241   -1.8280069164    2.4793161651
H        4.0399334966   -0.7784535509    0.2723336402
23   
torsion grid (-90,)
H        2.0362588816   -0.1463250398   -1.0291412967
C        1.9331662864   -0.5196248824   -0.0216350002
C        3.0431397054   -0.9650037461    0.6729694257
C        2.9219864466   -1.4456581800    1.9652099805
C        1.6714164174   -1.4810253283    2.5705002512
C        0.5519786709   -1.0326881976    1.8728611936
C        0.6873902338   -0.5556913952    0.5848945480
H       -0.1851191830   -0.2098808979    0.0505911413
H       -0.4096399459   -1.0680401700    2.3604158111
O        1.4558252566   -1.9363246081    3.8405369772
C        2.5345447033   -2.4056393146    4.5680837346
C        3.2236056785   -1.5445052911    5.4116529641
C        4.2582891622   -2.0321700742    6.1898177833
C        4.6076529787   -3.3706582091    6.1266434508
C        3.9185583230   -4.2266730207    5.2839748014
C        2.8821550178   -3.7486108686    4.5022663805
H        2.3358637496   -4.4032351480    3.8397854484
H        4.1884890097   -5.2710759255    5.2335533479
H        5.4167604551   -3.7469095888    6.7345030322
H        4.7939410477   -1.3630005808    6.8466633986
H        2.9398254683   -0.5034799927    5.4494766829
H        3.7931787512   -1.7915293705    2.5029324038
H        4.0183286668   -0.9405828639    0.2091759990
23   
torsion grid (-75,)
H        1.9638602188   -0.3739118094   -1.1201233813
C        1.8894038595   -0.6596279120   -0.0819275860
C        3.0158007268   -1.0659628699    0.6103169724
C        2.9317863913   -1.4350653530    1.9414602389
C        1.7019245613   -1.3985992305    2.5881020337
C        0.5665855222   -0.9867658289    1.8936891299
C        0.6653369448   -0.6194756481    0.5669686699
H       -0.2191896322   -0.3015416885    0.0351554753
H       -0.3777781096   -0.9617285712    2.4145682600
O        1.5254755031   -1.7283898798    3.9026196109
C        2.5812256085   -2.2805803199    4.6011356302
C        3.2092974272   -1.5282623146    5.5844810691
C        4.2115349241   -2.0994247273    6.3484871936
C        4.5883982529   -3.4144823474    6.1353002096
C        3.9557525695   -4.1643022239    5.1575240941
C        2.9499420975   -3.6040854680    4.3915490816
H        2.4481256474   -4.1780577919    3.6263888450
H        4.2429057288   -5.1921893846    4.9925578983
H        5.3723560210   -3.8561391127    6.7319708547
H        4.7005208070   -1.5130720005    7.1121575767
H        2.9027184460   -0.5051529828    5.7401925970
H        3.8166697827   -1.7451196542    2.4786176205
H        3.9749424831   -1.0963955748    0.1145403657
23   
torsion grid (-60,)
H        1.8692429866   -0.5916438899   -1.1898060349
C        1.8356764622   -0.7913168717   -0.1295947689
C        2.9891504809   -1.1413997014    0.5493861044
C        2.9564530119   -1.4006527041    1.9081276078
C        1.7521061298   -1.3122514120    2.5966318022
C        0.5909060629   -0.9537067299    1.9160693453
C        0.6381149521   -0.6943266540    0.5609443190
H       -0.2663946742   -0.4177688969    0.0397900139
H       -0.3324083984   -0.8825277357    2.4694654774
O        1.6324183583   -1.5166587661    3.9434317237
C        2.6421948916   -2.1589016145    4.6239247523
C        3.2028275583   -1.5252535134    5.7257057841
C        4.1543101719   -2.1826765213    6.4844103589
C        4.5480323189   -3.4674465699    6.1510392152
C        3.9791170501   -4.1012016433    5.0586815561
C        3.0226793380   -3.4560880815    4.2970885820
H        2.5697392143   -3.9442178210    3.4461649952
H        4.2753232948   -5.1072960107    4.8011312146
H        5.2933124459   -3.9764609317    6.7434234188
H        4.5910643161   -1.6869825936    7.3385776914
H        2.8824475012   -0.5252185724    5.9744546915
H        3.8624923526   -1.6627087453    2.4353232860
H        3.9287899559   -1.2116267134    0.0213613236
23   
torsion grid (-45,)
H        1.7617331628   -0.7848514989   -1.2331700943
C        1.7762865364   -0.9054632824   -0.1606474886
C        2.9653042088   -1.1830336804    0.4911106872
C        2.9947089296   -1.3410924685    1.8648446710
C        1.8177795675   -1.2264860760    2.5967743290
C        0.6229308654   -0.9372161952    1.9435155093
C        0.6073549390   -0.7772720882    0.5716787506
H       -0.3236052701   -0.5549915196    0.0715983441
H       -0.2777337700   -0.8393566508    2.5293104346
O        1.7685923117   -1.3157709287    3.9620344833
C        2.7091073246   -2.0522081583    4.6380228698
C        3.1977166704   -1.5325016345    5.8316307862
C        4.0855105240   -2.2710960061    6.5913808134
C        4.4906524130   -3.5262491489    6.1694634596
C        3.9929819119   -4.0474593700    4.9869512105
C        3.0999488953   -3.3207344243    4.2216638456
H        2.7011319813   -3.7290927516    3.3041505981
H        4.2951847669   -5.0310876457    4.6589549576
H        5.1874871112   -4.0991092220    6.7623573339
H        4.4647375048   -1.8620043628    7.5160012657
H        2.8694804593   -0.5543975311    6.1475319980
H        3.9271923530   -1.5436220272    2.3716873656
H        3.8831123847   -1.2732360224   -0.0711136709
23   
torsion grid (-30,)
H        1.6374910358   -0.9656228070   -1.2573302723
C        1.7114789334   -1.0123343485   -0.1814158819
C        2.9389803388   -1.2244123301    0.4231359197
C        3.0427637839   -1.2871530152    1.8004756036
C        1.9020853176   -1.1444993125    2.5840396492
C        0.6699232446   -0.9184870190    1.9791932278
C        0.5805118656   -0.8527918001    0.6015806897
H       -0.3791463662   -0.6798029644    0.1377430831
H       -0.2013239367   -0.7940966374    2.6033705702
O        1.9388985086   -1.1281885286    3.9544845859
C        2.7854230699   -1.9582542811    4.6398584506
C        3.1942341166   -1.5327639337    5.9006146150
C        4.0021269414   -2.3431349248    6.6744286779
C        4.4113649566   -3.5789579534    6.2011071120
C        3.9949899233   -4.0052922897    4.9517580566
C        3.1827090853   -3.2051893568    4.1688730447
H        2.8457293607   -3.5492237812    3.2017346738
H        4.2993719128   -4.9728633708    4.5806495040
H        5.0469631571   -4.2087445998    6.8048429257
H        4.3170124579   -2.0055404143    7.6506432242
H        2.8651885641   -0.5681246593    6.2543990499
H        4.0033070511   -1.4366155324    2.2721134423
H        3.8275124595   -1.3362388336   -0.1805674925
23   
torsion grid (-15,)
H        1.5009821247   -1.1123936501   -1.2575182015
C        1.6402772959   -1.0971536457   -0.1871545110
C        2.9081250650   -1.2463420106    0.3497275914
C        3.0951123338   -1.2289679267    1.7195170523
C        2.0003024111   -1.0702268149    2.5632193092
C        0.7290228694   -0.9071267969    2.0249039560
C        0.5543111293   -0.9203636534    0.6533624054
H       -0.4356748012   -0.7955300507    0.2405530872
H       -0.1065273749   -0.7683392086    2.6933761539
O        2.1326634868   -0.9711864048    3.9268717889
C        2.8690012638   -1.8836119852    4.6306470814
C        3.1803094452   -1.5363825994    5.9436481290
C        3.8981202930   -2.4071694493    6.7386540993
C        4.3177898125   -3.6285053300    6.2363226355
C        4.0021829688   -3.9755354440    4.9348207347
C        3.2822486225   -3.1121323450    4.1277956177
H        3.0232663811   -3.4020743504    3.1200478405
H        4.3163857233   -4.9294612379    4.5373060395
H        4.8830610708   -4.3067111215    6.8572102657
H        4.1345745602   -2.1291009263    7.7549989252
H        2.8461971099   -0.5813991934    6.3180504629
H        4.0850955105   -1.3276360558    2.1407487590
H        3.7607684801   -1.3709824932   -0.3013767628
23   
torsion grid (0,)
H        1.2528193241   -1.3070971027   -1.2079456168
C        1.5916028119   -1.2006330648   -0.1884496807
C        2.7901660936   -0.5623724521    0.0820963953
C        3.2305244680   -0.4288426846    1.3862914489
C        2.4641130671   -0.9357944374    2.4281032796
C        1.2519134670   -1.5630678496    2.1607347744
C        0.8241307915   -1.6959534255    0.8524394680
H       -0.1169132618   -2.1844995802    0.6470231122
H        0.6502994692   -1.9323260849    2.9785261839
O        2.8946850748   -0.7162213007    3.7177718016
C        3.1519023061   -1.7652353882    4.5559076875
C        3.5669081840   -1.4240806086    5.8422776315
C        3.8441627414   -2.4118037705    6.7650420627
C        3.7070408040   -3.7478509099    6.4230796419
C        3.2962441840   -4.0849025610    5.1463399247
C        3.0126009599   -3.1043701840    4.2114170112
H        2.7110033781   -3.3826429931    3.2123954611
H        3.1907905286   -5.1231672808    4.8677016968
H        3.9212467903   -4.5195014809    7.1466991304
H        4.1668685454   -2.1372777736    7.7583480195
H        3.6655086141   -0.3791746767    6.0919778499
H        4.1615165870    0.0672157611    1.6140451817
H        3.3884608534   -0.1687328452   -0.7260900059
23   
torsion grid (15,)
H        1.0789403576   -1.2437457003   -1.1452368746
C        1.5023324043   -1.1598921189   -0.1557897725
C        2.7078272499   -0.5049465376    0.0312219580
C        3.2563020692   -0.4013305549    1.2961425292
C        2.5939178380   -0.9556737179    2.3853902472
C        1.3732713519   -1.5976450230    2.2022880060
C        0.8370417510   -1.7001947557    0.9320427721
H       -0.1102111278   -2.2003265530    0.7939657749
H        0.8482329214   -2.0024678343    3.0553397290
O        3.1397294734   -0.7581271857    3.6303691116
C        3.2579101550   -1.7906952064    4.5190969245
C        3.5461189004   -1.4347097099    5.8351070193
C        3.7089005787   -2.4116756205    6.7965810009
C        3.5823512407   -3.7504112150    6.4621089394
C        3.3032214846   -4.1029526499    5.1538257325
C        3.1387041316   -3.1336912978    4.1799910687
H        2.9419953348   -3.4211600122    3.1575451848
H        3.2124101502   -5.1441412628    4.8811293122
H        3.7050886682   -4.5132800579    7.2157356617
H        3.9321108748   -2.1261518920    7.8138312033
H        3.6403854974   -0.3877950340    6.0779414552
H        4.1937555190    0.1074848565    1.4592335100
H        3.2272589576   -0.0748036108   -0.8121280339
23   
torsion grid (30,)
H        0.9224224442   -1.1676917509   -1.0650629619
C        1.4221492881   -1.1129044315   -0.1098024536
C        2.6366295526   -0.4576304117    0.0059654055
C        3.2811837766   -0.3920986191    1.2267823561
C        2.7072963878   -0.9857562734    2.3463323139
C        1.4786846761   -1.6291542025    2.2367628782
C        0.8467721234   -1.6919507117    1.0085624731
H       -0.1066651690   -2.1929543406    0.9286191386
H        1.0215004018   -2.0672899255    3.1122461279
O        3.3584871976   -0.8260648022    3.5422122604
C        3.3524360462   -1.8249724058    4.4789352265
C        3.5050663243   -1.4378735606    5.8072925476
C        3.5660909239   -2.3941350115    6.8022852993
C        3.4733958189   -3.7395356847    6.4859471173
C        3.3327127089   -4.1230768621    5.1634133123
C        3.2744013944   -3.1758816341    4.1572822906
H        3.1821911864   -3.4804348456    3.1247937037
H        3.2723664318   -5.1705458490    4.9070610206
H        3.5159707829   -4.4852320619    7.2652095470
H        3.6825181838   -2.0863213692    7.8307799130
H        3.5770956562   -0.3859904718    6.0360502309
H        4.2266984323    0.1164388138    1.3342269146
H        3.0881912123    0.0027237179   -0.8601622020
23   
torsion grid (45,)
H        0.7766561634   -1.0568519215   -0.9703486485
C        1.3452439398   -1.0453662575   -0.0528905298
C        2.5713803099   -0.4030564682    0.0010960116
C        3.3033516120   -0.3923851841    1.1724879216
C        2.8070512404   -1.0280373639    2.3071867491
C        1.5696902223   -1.6611847600    2.2601029817
C        0.8493664868   -1.6679264120    1.0794474041
H       -0.1110061557   -2.1611687993    1.0493552821
H        1.1727671271   -2.1362496405    3.1456984587
O        3.5583417404   -0.9293292352    3.4474063301
C        3.4424704067   -1.8790154367    4.4317558049
C        3.4567537686   -1.4419459303    5.7515897458
C        3.4247671975   -2.3633218339    6.7816968235
C        3.3785132109   -3.7194180519    6.5053890962
C        3.3772745289   -4.1526924395    5.1900601781
C        3.4150954332   -3.2413143770    4.1512142098
H        3.4254085931   -3.5764201558    3.1239630786
H        3.3542677956   -5.2094032852    4.9681678466
H        3.3490059012   -4.4367183965    7.3115513704
H        3.4326340486   -2.0191679592    7.8052045775
H        3.4962333816   -0.3820362020    5.9496781214
H        4.2591778613    0.1044715110    1.2319021160
H        2.9631509681    0.0902059055   -0.8759824699
23   
torsion grid (60,)
H        0.6411524044   -0.9138232065   -0.8614597536
C        1.2709015421   -0.9587771624    0.0140040677
C        2.5104073720   -0.3390364658    0.0144980407
C        3.3201242313   -0.3988345431    1.1310416275
C        2.8906777653   -1.0825204137    2.2660548226
C        1.6436355153   -1.6966515462    2.2715173162
C        0.8434875010   -1.6319632401    1.1445678145
H       -0.1244306091   -2.1111817202    1.1565831110
H        1.2998895791   -2.2142852311    3.1554916234
O        3.7317458270   -1.0656099510    3.3441523100
C        3.5284918067   -1.9534926528    4.3764055550
C        3.3978569975   -1.4498309560    5.6644274816
C        3.2847113857   -2.3205543451    6.7331645120
C        3.3023798899   -3.6890758028    6.5243071331
C        3.4441982489   -4.1885664180    5.2401918905
C        3.5644685417   -3.3276903690    4.1652968571
H        3.6804294582   -3.7080760934    3.1606284421
H        3.4692241815   -5.2552844838    5.0735235165
H        3.2105475703   -4.3658668442    7.3603585146
H        3.1800877708   -1.9267666677    7.7331900782
H        3.3896006790   -0.3806757443    5.8108131658
H        4.2875819635    0.0781565671    1.1491398575
H        2.8504261596    0.1920745962   -0.8621655244
23   
torsion grid (75,)
H        0.5195072455   -0.7402969756   -0.7338288985
C        1.2024228260   -0.8521987782    0.0944980534
C        2.4634404400   -0.2795780850    0.0405688139
C        3.3405176806   -0.4226447795    1.0965452544
C        2.9585858069   -1.1442265817    2.2253769753
C        1.6927474749   -1.7153378298    2.2844283032
C        0.8241643561   -1.5656626143    1.2174599516
H       -0.1580300310   -2.0119205445    1.2707370747
H        1.3889483229   -2.2681491471    3.1618019126
O        3.8757291600   -1.2252706200    3.2353806552
C        3.6111645602   -2.0452998475    4.3147295671
C        3.3239287544   -1.4717785241    5.5459964858
C        3.1408559237   -2.2814278035    6.6529541459
C        3.2427741108   -3.6572071217    6.5359620852
C        3.5353786943   -4.2261212341    5.3074520189
C        3.7244210385   -3.4253790179    4.1960229969
H        3.9537876237   -3.8562626480    3.2324528153
H        3.6216222909   -5.2985085545    5.2137938383
H        3.0971782788   -4.2859934153    7.4014616024
H        2.9160412115   -1.8345416240    7.6099624474
H        3.2500427058   -0.3976132101    5.6214913917
H        4.3257412130    0.0160869346    1.0717678789
H        2.7666260942    0.2809993282   -0.8312829101
23   
torsion grid (90,)
H        0.4212643819   -0.5477227784   -0.5981572622
C        1.1450146553   -0.7326629203    0.1809549762
C        2.4309437823   -0.2268683043    0.0727677392
C        3.3588488006   -0.4617865656    1.0670172128
C        3.0049548532   -1.2106857902    2.1871741004
C        1.7160631482   -1.7185563392    2.2984202451
C        0.7954351140   -1.4756382051    1.2939064764
H       -0.2042904144   -1.8737263987    1.3876874546
H        1.4366474472   -2.2990751239    3.1659673842
O        3.9782660773   -1.3977626507    3.1276556385
C        3.6785515993   -2.1466864231    4.2512979996
C        3.2331300490   -1.5125966855    5.4034759132
C        3.0002358496   -2.2560670264    6.5467008048
C        3.2069862568   -3.6253079108    6.5427183251
C        3.6510490686   -4.2545189905    5.3918076551
C        3.8872177635   -3.5196876277    4.2437752278
H        4.2329777708   -3.9958958902    3.3384960075
H        3.8139785492   -5.3220401818    5.3862432986
H        3.0225973331   -4.2020456322    7.4366399431
H        2.6545660579   -1.7631779098    7.4432046965
H        3.0761374455   -0.4444718972    5.3909545877
H        4.3639611488   -0.0759959167    0.9994768658
H        2.7130590439    0.3546444746   -0.7924528307
23   
torsion grid (105,)
H        0.3626619974   -0.3370731676   -0.4786797566
C        1.1080134747   -0.6021265788    0.2556430046
C        2.4163145839   -0.1684436060    0.1096881703
C        3.3713773574   -0.5036605991    1.0479244932
C        3.0227504238   -1.2837442528    2.1483538820
C        1.7124502316   -1.7233855361    2.2949610304
C        0.7643588901   -1.3784657933    1.3475165594
H       -0.2517401688   -1.7243498607    1.4684221884
H        1.4385088069   -2.3347380281    3.1427737765
O        4.0279626492   -1.5847914506    3.0238070012
C        3.7159676178   -2.2549547730    4.1912725303
C        3.1343228246   -1.5774825403    5.2561378784
C        2.8802733693   -2.2492946863    6.4378608056
C        3.1997612424   -3.5914595444    6.5592898090
C        3.7754909968   -4.2638123025    5.4946612842
C        4.0306629216   -3.6022648753    4.3066527471
H        4.4785490647   -4.1128966778    3.4676069864
H        4.0228338809   -5.3109628509    5.5859601650
H        2.9994915095   -4.1127112978    7.4833264749
H        2.4305361009   -1.7221084493    7.2661088972
H        2.8884699886   -0.5314254469    5.1465914988
H        4.3941626463   -0.1748788813    0.9503238892
H        2.6944153722    0.4366985050   -0.7404708560
23   
torsion grid (120,)
H        0.3359852526   -0.1199244334   -0.3761388504
C        1.0860649497   -0.4696791529    0.3167569819
C        2.4124747405   -0.1030443228    0.1531939085
C        3.3735470974   -0.5449511219    1.0401208461
C        3.0115063328   -1.3667792358    2.1050198578
C        1.6832780766   -1.7434436566    2.2665774860
C        0.7298753199   -1.2904229795    1.3718705048
H       -0.3001572359   -1.5876838903    1.5034819036
H        1.4002582138   -2.3924523077    3.0827612418
O        4.0248838484   -1.7905727421    2.9191195624
C        3.7196310853   -2.3694986331    4.1316726413
C        3.0451922292   -1.6582319055    5.1179466672
C        2.8031993773   -2.2499148171    6.3437796053
C        3.2267262501   -3.5454291296    6.5905241015
C        3.8960875060   -4.2515195318    5.6055071085
C        4.1383551608   -3.6715335595    4.3732395287
H        4.6587697756   -4.2083914874    3.5950080693
H        4.2249975716   -5.2628169451    5.7930621672
H        3.0348838117   -4.0031617957    7.5492722568
H        2.2818813370   -1.6951809744    7.1097864501
H        2.7192688798   -0.6483097000    4.9150937358
H        4.4106158785   -0.2698035657    0.9277038351
H        2.7002703231    0.5344131942   -0.6696271501
23   
torsion grid (135,)
H        1.0298396229    0.8044552201   -0.2060444145
C        1.4967307856    0.0381603907    0.3938661192
C        2.5004833742   -0.7524410282   -0.1414545834
C        3.1032902243   -1.7296698936    0.6261741002
C        2.7010754071   -1.9259186406    1.9445563854
C        1.6842872882   -1.1423538096    2.4793274037
C        1.0914120879   -0.1641651019    1.7015866844
H        0.3020714016    0.4402546003    2.1237535902
H        1.3554377712   -1.3055454270    3.4954883001
O        3.3059850463   -2.9466985973    2.6269436238
C        3.3209705181   -2.9387202480    4.0006796390
C        3.6905259977   -1.8118978680    4.7276751510
C        3.7480503142   -1.8766526386    6.1074077969
C        3.4432913538   -3.0549556296    6.7683787744
C        3.0824271931   -4.1768095458    6.0413818606
C        3.0152301196   -4.1228265208    4.6613347829
H        2.7367189049   -4.9883090751    4.0802735270
H        2.8445544322   -5.0986454079    6.5509963926
H        3.4897873314   -3.0985963536    7.8460197046
H        4.0369707981   -1.0002855869    6.6685527056
H        3.9337281533   -0.8967851741    4.2070808139
H        3.8853522399   -2.3548231117    0.2243539375
H        2.8193754162   -0.6051032467   -1.1625998357
23   
torsion grid (150,)
H        1.2213993887    0.9199890446   -0.2257878419
C        1.6009912976    0.1133879060    0.3828205039
C        2.5779103530   -0.7333258335   -0.1145505884
C        3.0704064825   -1.7624479331    0.6645848196
C        2.5838966789   -1.9530335120    1.9544530115
C        1.5904911024   -1.1141170784    2.4484346461
C        1.1084132330   -0.0842227401    1.6613527432
H        0.3373134447    0.5637732468    2.0513264578
H        1.1932153887   -1.2768921412    3.4398958842
O        3.0654484126   -3.0317927719    2.6486502181
C        3.1901335921   -2.9839803103    4.0120875897
C        3.5264813221   -1.8245527550    4.7030632814
C        3.6992490571   -1.8705985932    6.0743816871
C        3.5484773597   -3.0615975389    6.7635326602
C        3.2311783509   -4.2181673177    6.0705442310
C        3.0511414635   -4.1851623024    4.7012282521
H        2.8059592342   -5.0773580891    4.1462386582
H        3.1194215804   -5.1526975937    6.5998727842
H        3.6831676919   -3.0892340227    7.8341646629
H        3.9597857534   -0.9669008148    6.6053443082
H        3.6615330547   -0.8971311326    4.1653620751
H        3.8297660642   -2.4323913666    0.2923904532
H        2.9618154755   -0.5898790438   -1.1136580382
23   
torsion grid (165,)
H        1.4189084563    0.9985308021   -0.2514927584
C        1.7071602049    0.1640582462    0.3696795237
C        2.6652255587   -0.7334694647   -0.0709629637
C        3.0410523859   -1.7991427489    0.7252373622
C        2.4538201127   -1.9722939841    1.9737541233
C        1.4773657572   -1.0827577887    2.4104171232
C        1.1137094309   -0.0173648905    1.6075311940
H        0.3560351858    0.6713908740    1.9510292492
H        1.0026386523   -1.2358788028    3.3688238269
O        2.8075038306   -3.0883477194    2.6905501044
C        3.0571021506   -3.0120385659    4.0331614807
C        3.3624431239   -1.8326612194    4.7034916194
C        3.6588961215   -1.8692839509    6.0545068637
C        3.6664802171   -3.0689566166    6.7436449612
C        3.3867627691   -4.2461767390    6.0685328516
C        3.0875083233   -4.2232218088    4.7210153455
H        2.8699829639   -5.1305834623    4.1794381773
H        3.4027814313   -5.1891057046    6.5945950201
H        3.8970383835   -3.0881312401    7.7979156043
H        3.8925908148   -0.9481815165    6.5679513655
H        3.3821329881   -0.8939878255    4.1693564808
H        3.7843582444   -2.5086886482    0.3961863633
H        3.1260986748   -0.6020399194   -1.0386304587
23   
torsion grid (180,)
H        1.7151713481    0.9684116260   -0.3627115314
C        1.7848967844    0.1569678696    0.3459132474
C        3.0085305484   -0.4403530077    0.5981296370
C        3.1057796712   -1.4802047923    1.5045694223
C        1.9677161463   -1.9201816450    2.1722893729
C        0.7372827830   -1.3295501044    1.9119921134
C        0.6505641866   -0.2944119878    0.9991087125
H       -0.3070873400    0.1633011803    0.8004399049
H       -0.1373042136   -1.6940268417    2.4284817466
O        1.9991013274   -2.9972217685    3.0285254847
C        2.7986647348   -2.9877140168    4.1375073167
C        3.5720212010   -1.9069619651    4.5447172479
C        4.3131638792   -1.9946674757    5.7105224746
C        4.2836983538   -3.1418730055    6.4822953239
C        3.4917144580   -4.2088965940    6.0886022653
C        2.7467829913   -4.1336684270    4.9294894873
H        2.1228795573   -4.9535205273    4.6093894756
H        3.4494879731   -5.1037098259    6.6916844303
H        4.8661676646   -3.2020471198    7.3889644750
H        4.9138489964   -1.1507726340    6.0168163680
H        3.5856591347   -0.9961086686    3.9646618735
H        4.0547260063   -1.9614123269    1.6920612372
H        3.8941295893   -0.0997106358    0.0822823738
