6    

H       -0.5704856830   -0.0581956702   -0.7702035361
C        0.0265059577    0.3286329345    0.0624007532
H       -0.6520914613    0.6983269248    0.8384610694
O        0.8557890124   -0.6603361910    0.5687622911
H        0.3697194369   -1.4836917603    0.6802302166
Br       1.1586914613    1.7754620478   -0.5756473465
6    

H       -0.5659076100   -0.0845005126   -0.7428628471
C        0.0176068127    0.3321313993    0.0848333952
H       -0.6743580104    0.7380870067    0.8303963758
O        0.8212930565   -0.6421281097    0.6507244346
H        0.4136822223   -1.5103742218    0.5776211197
Br       1.1692768666    1.7554480870   -0.6005021223
6    

H       -0.5742448320   -0.1069701124   -0.7174330576
C        0.0036063382    0.3310030728    0.1031337396
H       -0.6956519986    0.7764919326    0.8187301669
O        0.7673523188   -0.6344618489    0.7259356328
H        0.4809464590   -1.5203882751    0.4858341027
Br       1.1874072660    1.7302178647   -0.6185523171
6    

H       -0.5980715612   -0.1224214390   -0.6928791078
C       -0.0146778304    0.3262494839    0.1179106504
H       -0.7122313857    0.8120077480    0.8085413830
O        0.6999666434   -0.6364018446    0.7873006398
H        0.5667292032   -1.5107505290    0.4089977014
Br       1.2109380020    1.6979772312   -0.6321344240
6    

H       -0.2602245555   -0.1132843134   -0.9353414558
C       -0.0530068624    0.2861478884    0.0629533344
H       -1.0044900155    0.6186473484    0.4914940679
O        0.4857228643   -0.6808204081    0.8633352535
H        0.8221988197   -1.4253920060    0.3532513752
Br       1.1653800933    1.8663572854   -0.0828251648
6    

H       -0.3005315534   -0.1112338838   -0.9358075716
C       -0.0763870936    0.2780318145    0.0628924880
H       -1.0150744378    0.6475186416    0.4893647649
O        0.4121303314   -0.7123610297    0.8589668526
H        0.9225117354   -1.3576735053    0.3551127491
Br       1.2029446674    1.8166542677   -0.0823387185
6    

H       -0.3427363178   -0.0964109397   -0.9411657781
C       -0.0986843349    0.2718448672    0.0608848946
H       -1.0202833960    0.6725086889    0.4963896259
O        0.3506349801   -0.7494746197    0.8376581246
H        1.0134388172   -1.2794658174    0.3760676553
Br       1.2388736074    1.7587335944   -0.0823001346
6    

H       -0.3855619024   -0.0685413953   -0.9508761619
C       -0.1171924212    0.2683668356    0.0560238990
H       -1.0180073207    0.6929738881    0.5118585012
O        0.3026500753   -0.7917456530    0.8006290524
H        1.0910032222   -1.1983819384    0.4167365848
Br       1.2697432603    1.6981847423   -0.0830490317
6    

H       -0.4301576921   -0.0312632542   -0.9628310396
C       -0.1305534697    0.2654958399    0.0479206866
H       -1.0076948365    0.7040559210    0.5355972123
O        0.2692791499   -0.8379763960    0.7479846288
H        1.1516847444   -1.1232876677    0.4770211886
Br       1.2926675790    1.6441641515   -0.0870705316
6    

H       -0.4745590721    0.0115348811   -0.9763059161
C       -0.1379202271    0.2621609083    0.0353002704
H       -0.9902095900    0.7027942029    0.5634815705
O        0.2513387554   -0.8849762839    0.6811041859
H        1.1919756744   -1.0600821392    0.5556259292
Br       1.3067299337    1.6027725353   -0.0941469222
6    

H       -0.5171763956    0.0566068894   -0.9888867866
C       -0.1394461515    0.2585205691    0.0191075890
H       -0.9659756637    0.6897975135    0.5938837297
O        0.2490553683   -0.9282219899    0.6033881813
H        1.2083814522   -1.0099822520    0.6461968028
Br       1.3139865548    1.5763468926   -0.1037999700
6    

H       -0.5566232947    0.0974730341   -0.9984311705
C       -0.1369423178    0.2528388716    0.0011881002
H       -0.9369182760    0.6645782134    0.6257027857
O        0.2623554178   -0.9632881261    0.5193244349
H        1.1995706802   -0.9710181467    0.7414743083
Br       1.3173629474    1.5651724938   -0.1165163957
6    

H       -0.5924222796    0.1316233718   -1.0025059298
C       -0.1313884678    0.2461613851   -0.0156689050
H       -0.9031361138    0.6316193088    0.6591123154
O        0.2892211148   -0.9870997005    0.4346908973
H        1.1649078092   -0.9434950191    0.8348089703
Br       1.3201677998    1.5664709752   -0.1340668405
6    

H       -0.6248248270    0.1564989163   -0.9985142333
C       -0.1230715823    0.2396502919   -0.0285349156
H       -0.8656534079    0.5944434984    0.6940854404
O        0.3282462997   -0.9985999640    0.3556470561
H        1.1071360904   -0.9316587934    0.9213806572
Br       1.3210540778    1.5806252183   -0.1596583155
6    

H       -0.6525751127    0.1708671523   -0.9859027855
C       -0.1113872168    0.2352533965   -0.0358973131
H       -0.8260492999    0.5580859213    0.7286189214
O        0.3774350281   -0.9984456838    0.2882830578
H        1.0308205092   -0.9410299855    0.9976488602
Br       1.3169336847    1.6075746076   -0.1952333407
6    

H       -0.6723412372    0.1751243930   -0.9670005102
C       -0.0951204216    0.2348364147   -0.0381330478
H       -0.7855245917    0.5280236368    0.7598399436
O        0.4350534840   -0.9885876171    0.2371669014
H        0.9413891649   -0.9733144171    1.0604121375
Br       1.3051297936    1.6446851914   -0.2392665551
6    

H       -0.6831441005    0.1681678667   -0.9454163767
C       -0.0759810870    0.2376205688   -0.0365323941
H       -0.7469343920    0.5064651474    0.7861604529
O        0.4992795391   -0.9702849559    0.2051087478
H        0.8434556474   -1.0239495674    1.1061796402
Br       1.2858670524    1.6876943998   -0.2876829556
6    

H       -0.6846716927    0.1532555528   -0.9235917938
C       -0.0541035143    0.2444418254   -0.0327484379
H       -0.7085748924    0.4974210688    0.8079887718
O        0.5686652282   -0.9449394665    0.1926044476
H        0.7418319019   -1.0861820341    1.1311410242
Br       1.2612784149    1.7286160395   -0.3363304650
6    

H       -0.6782192099    0.1305839556   -0.9037298801
C       -0.0317514077    0.2540993244   -0.0283176442
H       -0.6721157020    0.5011405395    0.8249009443
O        0.6415120808   -0.9122691955    0.2000685532
H        0.6407428297   -1.1527422561    1.1327858300
Br       1.2338911660    1.7630614695   -0.3804350573
6    

H       -0.6653202145    0.1028369909   -0.8858940006
C       -0.0106182736    0.2672342124   -0.0234255766
H       -0.6400363546    0.5192275777    0.8364384158
O        0.7145065452   -0.8715399421    0.2273489730
H        0.5460383080   -1.2178260418    1.1088566386
Br       1.2066279175    1.7868277891   -0.4178072392
6    

H       -0.6484634469    0.0704113917   -0.8673846329
C        0.0070418498    0.2813309860   -0.0157236117
H       -0.6176770355    0.5476133082    0.8432771792
O        0.7794815098   -0.8248474683    0.2724918507
H        0.4640668712   -1.2806980957    1.0581460728
Br       1.1837256052    1.7998394336   -0.4510328176
6    

H       -0.6279816451    0.0361322247   -0.8467585364
C        0.0202152108    0.2955345926   -0.0029394281
H       -0.6094583463    0.5820410899    0.8459289572
O        0.8292244082   -0.7759765323    0.3327646787
H        0.4010101576   -1.3405730816    0.9833066522
Br       1.1676640157    1.8038219900   -0.4828482425
6    

H       -0.6056185492    0.0023459713   -0.8234423302
C        0.0279370110    0.3091127819    0.0155685208
H       -0.6154298618    0.6194719239    0.8456417463
O        0.8598532687   -0.7292997456    0.4051711012
H        0.3628959842   -1.3956224897    0.8906087906
Br       1.1580037709    1.8004475411   -0.5146712852
6    

H       -0.5849662850   -0.0293148025   -0.7976245777
C        0.0300331009    0.3205165246    0.0382941858
H       -0.6312558919    0.6584275327    0.8432037636
O        0.8687437554   -0.6898228926    0.4854328259
H        0.3520975846   -1.4443088187    0.7870949006
Br       1.1552147913    1.7905936092   -0.5461351047
