6    

H       -0.5738892942   -0.0591032341   -0.7673279440
C        0.0265059577    0.3286329345    0.0624007532
H       -0.6523123947    0.6972476898    0.8387806355
O        0.8557890124   -0.6603361910    0.5687622911
H        0.3697194369   -1.4836917603    0.6802302166
Br       1.1586914613    1.7754620478   -0.5756473465
6    

H       -0.5700612938   -0.0847481889   -0.7397933819
C        0.0176068127    0.3321313993    0.0848333952
H       -0.6723082524    0.7389046936    0.8318490716
O        0.8212930565   -0.6421281097    0.6507244346
H        0.4136822223   -1.5103742218    0.5776211197
Br       1.1692768666    1.7554480870   -0.6005021223
6    

H       -0.5783442839   -0.1064386266   -0.7148162298
C        0.0036063382    0.3310030728    0.1031337396
H       -0.6915949161    0.7791122780    0.8210441406
O        0.7673523188   -0.6344618489    0.7259356328
H        0.4809464590   -1.5203882751    0.4858341027
Br       1.1874072660    1.7302178647   -0.6185523171
6    

H       -0.6008147767   -0.1214296790   -0.6914493086
C       -0.0146778304    0.3262494839    0.1179106504
H       -0.7074922791    0.8153942682    0.8109185414
O        0.6999666434   -0.6364018446    0.7873006398
H        0.5667292032   -1.5107505290    0.4089977014
Br       1.2109380020    1.6979772312   -0.6321344240
6    

H       -0.2604591728   -0.1124780564   -0.9356157969
C       -0.0530068624    0.2861478884    0.0629533344
H       -1.0020357397    0.6217185973    0.4945330094
O        0.4857228643   -0.6808204081    0.8633352535
H        0.8221988197   -1.4253920060    0.3532513752
Br       1.1653800933    1.8663572854   -0.0828251648
6    

H       -0.2975854517   -0.1105493484   -0.9367301965
C       -0.0763870936    0.2780318145    0.0628924880
H       -1.0138914332    0.6493203311    0.4904016550
O        0.4121303314   -0.7123610297    0.8589668526
H        0.9225117354   -1.3576735053    0.3551127491
Br       1.2029446674    1.8166542677   -0.0823387185
6    

H       -0.3375286287   -0.0961606941   -0.9425103974
C       -0.0986843349    0.2718448672    0.0608848946
H       -1.0205759026    0.6729389995    0.4953730814
O        0.3506349801   -0.7494746197    0.8376581246
H        1.0134388172   -1.2794658174    0.3760676553
Br       1.2388736074    1.7587335944   -0.0823001346
6    

H       -0.3796276701   -0.0688155403   -0.9523462249
C       -0.1171924212    0.2683668356    0.0560238990
H       -1.0196488581    0.6922937957    0.5092363133
O        0.3026500753   -0.7917456530    0.8006290524
H        1.0910032222   -1.1983819384    0.4167365848
Br       1.2697432603    1.6981847423   -0.0830490317
6    

H       -0.4252507243   -0.0319688859   -0.9640646859
C       -0.1305534697    0.2654958399    0.0479206866
H       -1.0103460681    0.7026370484    0.5320819020
O        0.2692791499   -0.8379763960    0.7479846288
H        1.1516847444   -1.1232876677    0.4770211886
Br       1.2926675790    1.6441641515   -0.0870705316
6    

H       -0.4721611487    0.0106411015   -0.9768787460
C       -0.1379202271    0.2621609083    0.0353002704
H       -0.9933670515    0.7009846204    0.5598706884
O        0.2513387554   -0.8849762839    0.6811041859
H        1.1919756744   -1.0600821392    0.5556259292
Br       1.3067299337    1.6027725353   -0.0941469222
6    

H       -0.5177900931    0.0558068603   -0.9884958572
C       -0.1394461515    0.2585205691    0.0191075890
H       -0.9690345646    0.6879126408    0.5908797989
O        0.2490553683   -0.9282219899    0.6033881813
H        1.2083814522   -1.0099822520    0.6461968028
Br       1.3139865548    1.5763468926   -0.1037999700
6    

H       -0.5595867018    0.0969543301   -0.9971008266
C       -0.1369423178    0.2528388716    0.0011881002
H       -0.9391481609    0.6629657040    0.6239006086
O        0.2623554178   -0.9632881261    0.5193244349
H        1.1995706802   -0.9710181467    0.7414743083
Br       1.3173629474    1.5651724938   -0.1165163957
6    

H       -0.5966529381    0.1314852637   -1.0005020400
C       -0.1313884678    0.2461613851   -0.0156689050
H       -0.9036477847    0.6306675287    0.6590697584
O        0.2892211148   -0.9870997005    0.4346908973
H        1.1649078092   -0.9434950191    0.8348089703
Br       1.3201677998    1.5664709752   -0.1340668405
6    

H       -0.6293758305    0.1567671768   -0.9961691666
C       -0.1230715823    0.2396502919   -0.0285349156
H       -0.8638303606    0.5944096397    0.6959702778
O        0.3282462997   -0.9985999640    0.3556470561
H        1.1071360904   -0.9316587934    0.9213806572
Br       1.3210540778    1.5806252183   -0.1596583155
6    

H       -0.6565736361    0.1714580528   -0.9836533158
C       -0.1113872168    0.2352533965   -0.0358973131
H       -0.8221863546    0.5589447104    0.7318492205
O        0.3774350281   -0.9984456838    0.2882830578
H        1.0308205092   -0.9410299855    0.9976488602
Br       1.3169336847    1.6075746076   -0.1952333407
6    

H       -0.6749677369    0.1759131973   -0.9654132995
C       -0.0951204216    0.2348364147   -0.0381330478
H       -0.7807632757    0.5295060447    0.7633896852
O        0.4350534840   -0.9885876171    0.2371669014
H        0.9413891649   -0.9733144171    1.0604121375
Br       1.3051297936    1.6446851914   -0.2392665551
6    

H       -0.6837542852    0.1690715122   -0.9450770108
C       -0.0759810870    0.2376205688   -0.0365323941
H       -0.7427115567    0.5081878952    0.7890223342
O        0.4992795391   -0.9702849559    0.2051087478
H        0.8434556474   -1.0239495674    1.1061796402
Br       1.2858670524    1.6876943998   -0.2876829556
6    

H       -0.6829369794    0.1542331497   -0.9249168701
C       -0.0541035143    0.2444418254   -0.0327484379
H       -0.7061752538    0.4989221621    0.8093986719
O        0.5686652282   -0.9449394665    0.1926044476
H        0.7418319019   -1.0861820341    1.1311410242
Br       1.2612784149    1.7286160395   -0.3363304650
6    

H       -0.6743593640    0.1315568058   -0.9067041646
C       -0.0317514077    0.2540993244   -0.0283176442
H       -0.6723261008    0.5019097066    0.8245208518
O        0.6415120808   -0.9122691955    0.2000685532
H        0.6407428297   -1.1527422561    1.1327858300
Br       1.2338911660    1.7630614695   -0.3804350573
6    

H       -0.6604077570    0.1036077035   -0.8897479234
C       -0.0106182736    0.2672342124   -0.0234255766
H       -0.6426894816    0.5188531196    0.8346015774
O        0.7145065452   -0.8715399421    0.2273489730
H        0.5460383080   -1.2178260418    1.1088566386
Br       1.2066279175    1.7868277891   -0.4178072392
6    

H       -0.6442491343    0.0706789998   -0.8706784388
C        0.0070418498    0.2813309860   -0.0157236117
H       -0.6216368475    0.5460423572    0.8408713193
O        0.7794815098   -0.8248474683    0.2724918507
H        0.4640668712   -1.2806980957    1.0581460728
Br       1.1837256052    1.7998394336   -0.4510328176
6    

H       -0.6258504246    0.0357092401   -0.8482616879
C        0.0202152108    0.2955345926   -0.0029394281
H       -0.6134693630    0.5796025975    0.8437606022
O        0.8292244082   -0.7759765323    0.3327646787
H        0.4010101576   -1.3405730816    0.9833066522
Br       1.1676640157    1.8038219900   -0.4828482425
6    

H       -0.6058461222    0.0013570381   -0.8229076395
C        0.0279370110    0.3091127819    0.0155685208
H       -0.6187118271    0.6167206746    0.8441131301
O        0.8598532687   -0.7292997456    0.4051711012
H        0.3628959842   -1.3956224897    0.8906087906
Br       1.1580037709    1.8004475411   -0.5146712852
6    

H       -0.5870780589   -0.0304941073   -0.7955703370
C        0.0300331009    0.3205165246    0.0382941858
H       -0.6332900131    0.6560942544    0.8425048243
O        0.8687437554   -0.6898228926    0.4854328259
H        0.3520975846   -1.4443088187    0.7870949006
Br       1.1552147913    1.7905936092   -0.5461351047
