15   

H        1.8845501191   -1.1969429511   -1.1372784066
C        1.8989896423   -1.1487040479   -0.0516632518
C        2.9606941503   -1.7129156028    0.6605965637
C        2.9827614014   -1.6485462849    2.0588609701
C        1.9377439775   -1.0271728624    2.7676298652
C        0.8788116127   -0.4511548242    2.0341132427
C        0.8609934353   -0.5146554104    0.6358223264
H        0.0426239589   -0.0637820308    0.0809007908
H        0.0688827458    0.0726117970    2.5337519655
C        1.9680883683   -0.9741836753    4.2380957310
O        2.9986688411   -1.1458666493    4.8281181973
O        0.8176975165   -0.7689074310    4.9117198680
H        0.0392111191   -0.8750488027    4.3499162352
H        3.8161069828   -2.0883348322    2.6032830214
H        3.7727971306   -2.2011723689    0.1291527562
15   

H        1.8838577197   -1.2620476960   -1.1393029705
C        1.8976850963   -1.2010759691   -0.0543360971
C        2.9498306053   -1.7725908235    0.6665708165
C        2.9717723535   -1.6906360635    2.0641067111
C        1.9363535947   -1.0425348775    2.7629711081
C        0.8871239092   -0.4605202956    2.0206801043
C        0.8687459403   -0.5425069462    0.6235513182
H        0.0577803669   -0.0857915583    0.0625791463
H        0.0864423977    0.0827229727    2.5151240769
C        1.9669687079   -0.9570535557    4.2318023284
O        2.9799005709   -1.1865343014    4.8318113293
O        0.8201727735   -0.6788308861    4.8963827097
H        0.0378198781   -0.9607343381    4.4072733019
H        3.7988992007   -2.1341970228    2.6148244684
H        3.7553464038   -2.2788897954    0.1420859739
15   

H        1.8962137100   -1.3110820444   -1.1454713991
C        1.9060716669   -1.2407515829   -0.0610535366
C        2.9502957936   -1.8145569367    0.6697486359
C        2.9674284514   -1.7197136819    2.0667230053
C        1.9353380800   -1.0548150116    2.7547447191
C        0.8937840409   -0.4722952663    2.0023864737
C        0.8797245989   -0.5676498776    0.6062416240
H        0.0743153163   -0.1095801108    0.0384478319
H        0.0956979477    0.0808677274    2.4904775109
C        1.9609905227   -0.9456727612    4.2222483695
O        2.9519553600   -1.2277853219    4.8353878664
O        0.8187513595   -0.5924102168    4.8733903761
H        0.0425735843   -1.0278828458    4.5047395272
H        3.7893207466   -2.1638247506    2.6246625672
H        3.7538643041   -2.3318115656    0.1531035374
15   

H        1.9225829207   -1.3320177454   -1.1567541989
C        1.9249410411   -1.2589446832   -0.0725086444
C        2.9612630564   -1.8351688104    0.6677657981
C        2.9685565343   -1.7365640601    2.0647266828
C        1.9348661958   -1.0640503846    2.7429804013
C        0.9008634173   -0.4808167858    1.9810175087
C        0.8962145690   -0.5802838739    0.5852457681
H        0.0958840670   -0.1213305407    0.0110793938
H        0.1002072957    0.0740127476    2.4632556720
C        1.9493342915   -0.9460609383    4.2102323805
O        2.9158055587   -1.2749738308    4.8379288803
O        0.8161862423   -0.5120029357    4.8460307092
H        0.0570692655   -1.0667189309    4.6424410287
H        3.7847168599   -2.1821510721    2.6297095700
H        3.7664444854   -2.3569449528    0.1583193757
15   

H        1.9623589054   -1.3202248683   -1.1735337292
C        1.9534609323   -1.2517160214   -0.0890633679
C        2.9811051935   -1.8322586632    0.6599906692
C        2.9731972142   -1.7400860108    2.0575024010
C        1.9333810126   -1.0684794567    2.7273796108
C        0.9078096463   -0.4822333611    1.9565328532
C        0.9179682169   -0.5755721116    0.5604673605
H        0.1229744885   -0.1147712610   -0.0195223838
H        0.1001782688    0.0668880084    2.4337810360
C        1.9291469593   -0.9584922434    4.1957048625
O        2.8728577852   -1.3252648400    4.8365564315
O        0.8133844471   -0.4410311361    4.8144917730
H        0.0849205742   -1.0676986832    4.8165559905
H        3.7823951345   -2.1896157677    2.6291745534
H        3.7910470988   -2.3527626579    0.1569251191
15   

H        2.0135778697   -1.2842102848   -1.1913346568
C        1.9897551348   -1.2268381463   -0.1064814766
C        3.0069954677   -1.8148009584    0.6509812005
C        2.9788251619   -1.7381263403    2.0492588201
C        1.9295942680   -1.0734407938    2.7115496341
C        0.9143350503   -0.4806532109    1.9320852625
C        0.9443223811   -0.5589257035    0.5354444423
H        0.1558153837   -0.0942175838   -0.0501720081
H        0.0967632844    0.0578889190    2.4044913528
C        1.8997871122   -0.9847514010    4.1816005266
O        2.8238530391   -1.3846174627    4.8327035659
O        0.8135777641   -0.3840208727    4.7813433930
H        0.1343895329   -1.0226726858    5.0130015120
H        3.7793507272   -2.1947320266    2.6273221781
H        3.8240419604   -2.3298579741    0.1539319090
15   

H        2.0656464024   -1.2478164948   -1.2061178877
C        2.0254508973   -1.2028349854   -0.1211972774
C        3.0322737487   -1.7973496366    0.6450307843
C        2.9820828329   -1.7377646343    2.0436073033
C        1.9215829076   -1.0825431285    2.6976598233
C        0.9166565097   -0.4839710897    1.9090680159
C        0.9682888279   -0.5455919140    0.5122917794
H        0.1863762334   -0.0775478689   -0.0794101793
H        0.0879574934    0.0426252737    2.3755856250
C        1.8644648008   -1.0160943889    4.1688027370
O        2.7728100942   -1.4446641856    4.8270544181
O        0.8118864082   -0.3497796604    4.7476219735
H        0.2118289264   -0.9483311713    5.2015783603
H        3.7740356559   -2.2007826401    2.6281720239
H        3.8578334016   -2.3050510655    0.1546201547
15   

H        2.1064431255   -1.2277833122   -1.2160938445
C        2.0513952228   -1.1922742114   -0.1314993616
C        3.0492074864   -1.7906795241    0.6434541018
C        2.9792482417   -1.7440914625    2.0417481713
C        1.9083707017   -1.0967995961    2.6869972793
C        0.9123011680   -0.4951397190    1.8893397428
C        0.9832786488   -0.5443381599    0.4929814727
H        0.2071126151   -0.0747692105   -0.1049985494
H        0.0737533165    0.0216051890    2.3493405994
C        1.8283881370   -1.0446122746    4.1582436765
O        2.7179718929   -1.5063816611    4.8231421996
O        0.8069430448   -0.3321011349    4.7179690519
H        0.3143682362   -0.8555188143    5.3592646619
H        3.7640091122   -2.2109506023    2.6327777634
H        3.8828271377   -2.2918208880    0.1600565000
15   

H        2.1402169801   -1.2149181318   -1.2221844800
C        2.0728491579   -1.1849114822   -0.1381351516
C        3.0675983759   -1.7773530067    0.6453725867
C        2.9815060543   -1.7380209984    2.0430607272
C        1.8972877172   -1.1039808024    2.6790793663
C        0.9039580481   -0.5092355530    1.8727610771
C        0.9912436203   -0.5507647049    0.4771381772
H        0.2166862137   -0.0866337453   -0.1271197078
H        0.0540727019   -0.0051805969    2.3261741071
C        1.7990648920   -1.0595077510    4.1496555281
O        2.6824298442   -1.5240885205    4.8235997111
O        0.7732368745   -0.3583201056    4.6950982431
H        0.4261107457   -0.8002211738    5.4800723659
H        3.7636248237   -2.2006910898    2.6407433684
H        3.9111014902   -2.2685757928    0.1690468796
15   

H        2.1602148258   -1.2026490268   -1.2262249103
C        2.0836572268   -1.1781757715   -0.1426555294
C        3.0758580681   -1.7675310362    0.6464472080
C        2.9776949442   -1.7355526157    2.0435566279
C        1.8839172633   -1.1118383442    2.6732783683
C        0.8928552826   -0.5209156536    1.8614180122
C        0.9922309648   -0.5549490507    0.4664183971
H        0.2190216088   -0.0940478242   -0.1420069086
H        0.0348179210   -0.0268458835    2.3105964520
C        1.7732870249   -1.0739648113    4.1431193128
O        2.6438235577   -1.5544947917    4.8245015410
O        0.7398915337   -0.3917709077    4.6809002893
H        0.5372040601   -0.7272520831    5.5655056809
H        3.7575445720   -2.1962095312    2.6456786302
H        3.9265160503   -2.2509407595    0.1749008305
15   

H        2.1791629963   -1.1887965801   -1.2286758927
C        2.0953858090   -1.1690425646   -0.1455495991
C        3.0881203467   -1.7517011925    0.6479197169
C        2.9804280878   -1.7260409549    2.0444825479
C        1.8763466129   -1.1156711351    2.6690369311
C        0.8844930689   -0.5320618829    1.8529606521
C        0.9936018492   -0.5593262845    0.4585647706
H        0.2194866556   -0.1043281416   -0.1531377695
H        0.0178628698   -0.0499573010    2.2987514352
C        1.7556122556   -1.0841983111    4.1380086188
O        2.6168413565   -1.5725990153    4.8267423208
O        0.6983528723   -0.4453050078    4.6712337923
H        0.6316876847   -0.6531752277    5.6154516743
H        3.7601812032   -2.1820485161    2.6502238290
H        3.9462744143   -2.2254191244    0.1801508166
15   

H        2.1947093107   -1.1718836582   -1.2287385105
C        2.1059431848   -1.1574055186   -0.1459279978
C        3.1015682794   -1.7322140223    0.6496834912
C        2.9872630406   -1.7136296148    2.0458506648
C        1.8733528748   -1.1187092198    2.6677265066
C        0.8783352353   -0.5435165811    1.8495569740
C        0.9943545578   -0.5631266744    0.4556079163
H        0.2175711407   -0.1149024709   -0.1577146562
H        0.0034070215   -0.0748170157    2.2934743199
C        1.7453914501   -1.0948628721    4.1361247707
O        2.6008503096   -1.5892390423    4.8282279659
O        0.6573532767   -0.5109993448    4.6661296362
H        0.6999540803   -0.5653297355    5.6333404788
H        3.7687563374   -2.1642674032    2.6533532225
H        3.9667852416   -2.1948490464    0.1838446843
15   

H        2.2007636151   -1.1496478665   -1.2274291775
C        2.1101985262   -1.1421948879   -0.1446947547
C        3.1110379182   -1.7101653631    0.6492425896
C        2.9942791526   -1.7009354853    2.0452819825
C        1.8724215043   -1.1227801762    2.6688101049
C        0.8718576752   -0.5549561783    1.8522307942
C        0.9906681011   -0.5646393369    0.4583949729
H        0.2094914139   -0.1224384803   -0.1537153339
H       -0.0100703039   -0.1005745550    2.2971381464
C        1.7418442730   -1.1091455964    4.1372136933
O        2.5956126918   -1.6110677238    4.8255151724
O        0.6233657383   -0.5811850372    4.6669061589
H        0.7381070498   -0.4603452269    5.6215966941
H        3.7794770744   -2.1470757080    2.6513376303
H        3.9819464536   -2.1607692273    0.1822101414
15   

H        2.2023024472   -1.1263745724   -1.2237943278
C        2.1115893558   -1.1275542935   -0.1410421125
C        3.1179339064   -1.6912766787    0.6488774840
C        3.0009057589   -1.6934860348    2.0448978579
C        1.8731153842   -1.1314118200    2.6726558088
C        0.8666663721   -0.5683752116    1.8599067997
C        0.9860211012   -0.5662019974    0.4660605078
H        0.2002409965   -0.1280828939   -0.1430907752
H       -0.0208904482   -0.1278025357    2.3073807670
C        1.7424952170   -1.1297652323    4.1413428617
O        2.5948125588   -1.6433128635    4.8216728059
O        0.5999815756   -0.6453155250    4.6728259354
H        0.7516274357   -0.3386777537    5.5778857632
H        3.7901917380   -2.1370412667    2.6475648765
H        3.9931446676   -2.1301902003    0.1787487775
15   

H        2.2019020615   -1.1031434346   -1.2186238245
C        2.1113979926   -1.1150613040   -0.1359102221
C        3.1218510390   -1.6790406001    0.6485063667
C        3.0050262671   -1.6953980573    2.0444202138
C        1.8734443436   -1.1471898695    2.6777021713
C        0.8624158149   -0.5845222932    1.8703599034
C        0.9816774269   -0.5681084861    0.4765830470
H        0.1923435620   -0.1307584358   -0.1285295971
H       -0.0293417425   -0.1563482167    2.3213536921
C        1.7438414781   -1.1595802722    4.1464666813
O        2.5896860048   -1.6921495693    4.8182448066
O        0.5891282398   -0.6919400859    4.6844710685
H        0.7563898927   -0.2017431636    5.4991409894
H        3.7973357519   -2.1395974929    2.6426931010
H        3.9999732741   -2.1075266840    0.1741810293
15   

H        2.1945889442   -1.0680401524   -1.2110054285
C        2.1059944803   -1.0933249433   -0.1283475582
C        3.1233626342   -1.6562883809    0.6477357625
C        3.0089990135   -1.6901710631    2.0434663804
C        1.8730779520   -1.1607548559    2.6849596951
C        0.8544999090   -0.5998877699    1.8860018921
C        0.9715605847   -0.5655731334    0.4923039220
H        0.1765958311   -0.1300736130   -0.1067620393
H       -0.0421177430   -0.1883805788    2.3426497691
C        1.7466703787   -1.1927006338    4.1535260743
O        2.5937320746   -1.7315294789    4.8159687824
O        0.5843146081   -0.7355471359    4.7051185344
H        0.7467312763   -0.0720023406    5.3842247046
H        3.8064456439   -2.1340391040    2.6352290806
H        4.0047908717   -2.0707881419    0.1670988432
15   

H        2.1894950235   -1.0233843184   -1.1989664245
C        2.1008098831   -1.0662768862   -0.1168449310
C        3.1199381737   -1.6384878175    0.6500955120
C        3.0051291212   -1.6960054194    2.0449419260
C        1.8677990294   -1.1800208604    2.6945571926
C        0.8468549080   -0.6104804301    1.9050387563
C        0.9641054221   -0.5531861893    0.5120504226
H        0.1671898826   -0.1123339139   -0.0805191116
H       -0.0530152161   -0.2128657834    2.3674464149
C        1.7415377547   -1.2388741136    4.1617086621
O        2.5707483659   -1.8108536126    4.8153960276
O        0.6010843426   -0.7318112742    4.7354542568
H        0.7746778590    0.0717176422    5.2340679807
H        3.8033450598   -2.1476704993    2.6298699672
H        4.0028041309   -2.0423347125    0.1629944411
15   

H        2.1920719717   -0.9607161904   -1.1810338432
C        2.1016510054   -1.0240400997   -0.1000252261
C        3.1210331911   -1.6081219232    0.6575605825
C        3.0035356188   -1.6933351446    2.0506814602
C        1.8639990144   -1.1923100213    2.7077595491
C        0.8421880169   -0.6113954286    1.9279176567
C        0.9619613535   -0.5269487771    0.5364599487
H        0.1641848453   -0.0790392671   -0.0496912585
H       -0.0619995828   -0.2298268987    2.3953243785
C        1.7335388424   -1.2860344471    4.1719997394
O        2.5470548902   -1.8862473052    4.8167177345
O        0.6300298214   -0.7166576198    4.7707461311
H        0.8013009899    0.1859379278    5.0515046476
H        3.8010784063   -2.1553469050    2.6285723026
H        4.0057514407   -2.0005378545    0.1644175382
15   

H        2.1947133293   -0.8991313592   -1.1601231420
C        2.1028535170   -0.9809747986   -0.0804416990
C        3.1217470574   -1.5773763026    0.6681072969
C        3.0019830586   -1.6879210595    2.0591622121
C        1.8614106682   -1.1989157926    2.7232232705
C        0.8393885463   -0.6062374697    1.9525812269
C        0.9613004524   -0.4970449016    0.5629666684
H        0.1632096641   -0.0418569729   -0.0172019254
H       -0.0685719632   -0.2389431110    2.4240375454
C        1.7266404034   -1.3255009760    4.1840133022
O        2.5229630600   -1.9593881536    4.8163580767
O        0.6772146513   -0.6878127990    4.8066287795
H        0.8182109921    0.2612737249    4.8588856084
H        3.7983487925   -2.1607067301    2.6300936104
H        4.0074439480   -1.9605890076    0.1694147249
15   

H        2.1830108349   -0.8600672032   -1.1417206456
C        2.0933063746   -0.9538390814   -0.0627889469
C        3.1134248331   -1.5594265846    0.6765524654
C        2.9963523735   -1.6862099014    2.0663351623
C        1.8580492516   -1.2032881412    2.7385488518
C        0.8338261504   -0.6023333028    1.9771475140
C        0.9530079755   -0.4773823831    0.5885233850
H        0.1534683187   -0.0169979114    0.0144009482
H       -0.0753775650   -0.2442253731    2.4531166727
C        1.7265273604   -1.3498802070    4.1973750642
O        2.5033872645   -2.0224477502    4.8141403649
O        0.7378355067   -0.6540096401    4.8415042669
H        0.8071218129    0.2927487769    4.6857321843
H        3.7932880375   -2.1666368528    2.6302097929
H        3.9978339516   -1.9376171754    0.1716806784
15   

H        2.1509381236   -0.8494503750   -1.1307655305
C        2.0675451959   -0.9481170527   -0.0517306983
C        3.0900780589   -1.5612324110    0.6778202077
C        2.9814289171   -1.6943416276    2.0675336635
C        1.8501612614   -1.2091811200    2.7498293725
C        0.8222669033   -0.6019070481    1.9982587319
C        0.9329657697   -0.4711640491    0.6093157292
H        0.1313003544   -0.0063101195    0.0417373589
H       -0.0843085206   -0.2453586182    2.4800862537
C        1.7320711998   -1.3605416134    4.2090352845
O        2.4827789562   -2.0780719343    4.8083070248
O        0.8064597221   -0.6146808271    4.8726823357
H        0.7703691066    0.2911116053    4.5467541279
H        3.7803545572   -2.1800743877    2.6241481123
H        3.9699928585   -1.9401253102    0.1655829805
15   

H        2.1027271241   -0.8653924362   -1.1266681972
C        2.0293485053   -0.9624629007   -0.0467354369
C        3.0544373905   -1.5830117074    0.6726101892
C        2.9592340522   -1.7133574138    2.0633836805
C        1.8400987599   -1.2169748815    2.7574147940
C        0.8082656320   -0.6034333054    2.0161274498
C        0.9053864238   -0.4761031274    0.6256660166
H        0.1017181147   -0.0061635056    0.0651146037
H       -0.0914796423   -0.2397227475    2.5048523761
C        1.7446223341   -1.3600076061    4.2189671693
O        2.4629092781   -2.1234719283    4.8019672369
O        0.8796570551   -0.5710231832    4.8998162704
H        0.7137027303    0.2641688277    4.4462888539
H        3.7606815052   -2.2034565444    2.6126195275
H        3.9263406161   -1.9689973733    0.1519581628
15   

H        2.0480120529   -0.9007166236   -1.1278406810
C        1.9857051364   -0.9915616933   -0.0466557825
C        3.0099524907   -1.6236544537    0.6634437597
C        2.9296607731   -1.7447855532    2.0557994327
C        1.8277308370   -1.2265522207    2.7612809576
C        0.7955545650   -0.6020466073    2.0293069051
C        0.8773796918   -0.4849683426    0.6367680069
H        0.0745371986   -0.0059572332    0.0827412797
H       -0.0928005572   -0.2204101532    2.5244168937
C        1.7595309640   -1.3521489483    4.2260582469
O        2.4386431647   -2.1607922615    4.7957947108
O        0.9540667574   -0.5217591351    4.9195930511
H        0.6435555903    0.2202057428    4.3848023805
H        3.7314060765   -2.2418412784    2.5983989720
H        3.8703063288   -2.0244679569    0.1347867407
15   

H        1.9918047758   -0.9392894154   -1.1330643050
C        1.9428150331   -1.0198650566   -0.0503758992
C        2.9616922640   -1.6703990272    0.6501090518
C        2.8991583035   -1.7770379797    2.0443390175
C        1.8214333221   -1.2257551933    2.7626955847
C        0.7944373677   -0.5812669083    2.0399376559
C        0.8580653449   -0.4798227817    0.6450004458
H        0.0601789271    0.0153312947    0.0980742944
H       -0.0754919694   -0.1674554201    2.5406457944
C        1.7842871622   -1.3319355372    4.2312349782
O        2.4463606446   -2.1623385220    4.7902618717
O        1.0071228433   -0.4880721497    4.9361936299
H        0.5258446077    0.1308077647    4.3713537733
H        3.6984650553   -2.2865933926    2.5789411715
H        3.8049806284   -2.0954936870    0.1129579634
