15   

H        1.8844838717   -1.1974117222   -1.1372589321
C        1.8989261055   -1.1491077717   -0.0516467076
C        2.9606303604   -1.7132789505    0.6606462261
C        2.9827075971   -1.6488139600    2.0589067664
C        1.9377003187   -1.0273812558    2.7676382647
C        0.8787645045   -0.4514124651    2.0340867891
C        0.8609360884   -0.5150093312    0.6358011374
H        0.0425690566   -0.0641625232    0.0808541658
H        0.0688491917    0.0724081096    2.5336910167
C        1.9680897212   -0.9741908872    4.2380961931
O        2.9986689886   -1.1458832446    4.8281131912
O        0.8177008376   -0.7689023661    4.9117254249
H        0.0392105000   -0.8750360873    4.3499263529
H        3.8160623518   -2.0885545316    2.6033532550
H        3.7727310346   -2.2015689027    0.1292296219
15   

H        1.8836720812   -1.2629966258   -1.1392468732
C        1.8975129311   -1.2018920517   -0.0542876442
C        2.9496612420   -1.7733267773    0.6666800571
C        2.9716341612   -1.6911768610    2.0642052679
C        1.9362440248   -1.0429526110    2.7629972485
C        0.8870038574   -0.4610353311    2.0206423818
C        0.8685940592   -0.5432187041    0.6235270169
H        0.0576315793   -0.0865552944    0.0625075835
H        0.0863574043    0.0823217492    2.5150184265
C        1.9669692172   -0.9570638609    4.2318026208
O        2.9798986341   -1.1865614993    4.8318058916
O        0.8201798788   -0.6788194542    4.8963881059
H        0.0378185925   -0.9607088413    4.4072844056
H        3.7987831409   -2.1346418265    2.6149666460
H        3.7551670166   -2.2796952480    0.1422473400
15   

H        1.8958470217   -1.3125075159   -1.1453676891
C        1.9057396618   -1.2419770706   -0.0609631175
C        2.9499780426   -1.8156598313    0.6699166638
C        2.9671773092   -1.7205219980    2.0668718109
C        1.9351403379   -1.0554396215    2.7547952602
C        0.8935596313   -0.4730683526    2.0023557004
C        0.8794326879   -0.5687197222    0.6062337583
H        0.0740212369   -0.1107287527    0.0383788208
H        0.0955355079    0.0802669942    2.4903534168
C        1.9609908645   -0.9456829309    4.2222495775
O        2.9519525252   -1.2278115673    4.8353835352
O        0.8187592339   -0.5923984266    4.8733959186
H        0.0425716754   -1.0278574338    4.5047499681
H        3.7891121106   -2.1644861658    2.6248651626
H        3.7535247702   -2.3330175564    0.1533414556
15   

H        1.9219861744   -1.3338999826   -1.1566115725
C        1.9244087064   -1.2605640627   -0.0723838821
C        2.9607639449   -1.8366230766    0.6679744450
C        2.9681706438   -1.7376294365    2.0649090022
C        1.9345628879   -1.0648768777    2.7430505686
C        0.9005090749   -0.4818432076    1.9810001343
C        0.8957458851   -0.5817018715    0.5852589224
H        0.0954022894   -0.1228541311    0.0110256442
H        0.0999447420    0.0732130614    2.4631307044
C        1.9493363838   -0.9460740059    4.2102333606
O        2.9157964688   -1.2750075839    4.8379326195
O        0.8161977537   -0.5119863117    4.8460295134
H        0.0570666120   -1.0666835643    4.6424416260
H        3.7843998072   -2.1830181467    2.6299483487
H        3.7659090717   -2.3585316272    0.1586068478
15   

H        1.9614647672   -1.3224300659   -1.1733843604
C        1.9526738652   -1.2536172569   -0.0889323280
C        2.9803822397   -1.8339633768    0.6601875009
C        2.9726498334   -1.7413373128    2.0576716407
C        1.9329501755   -1.0694566185    2.7274538848
C        0.9072912266   -0.4834497771    1.9565384130
C        0.9172730525   -0.5772447121    0.5605040330
H        0.1222457026   -0.1165687710   -0.0195395514
H        0.0997829786    0.0659350762    2.4336925599
C        1.9291472176   -0.9585095122    4.1957072780
O        2.8728462897   -1.3253088097    4.8365547622
O        0.8133990387   -0.4410092316    4.8144934309
H        0.0849154923   -1.0676539482    4.8165609711
H        3.7819505372   -2.1906285882    2.6293855370
H        3.7902692837   -2.3546159477    0.1571877875
15   

H        2.0124672237   -1.2864566105   -1.1912259816
C        1.9887861832   -1.2287781877   -0.1063858822
C        3.0061193228   -1.8165358226    0.6511122761
C        2.9781719973   -1.7394003037    2.0493697726
C        1.9290786489   -1.0744423161    2.7116036042
C        0.9136999056   -0.4819056742    1.9321022676
C        0.9434632851   -0.5606412068    0.5354837228
H        0.1549020268   -0.0960630852   -0.0501632997
H        0.0962683794    0.0569014342    2.4044494565
C        1.8997871848   -0.9847667810    4.1816034081
O        2.8238412094   -1.3846559978    4.8327016725
O        0.8135931305   -0.3839986397    4.7813436128
H        0.1343853978   -1.0226276622    5.0130069205
H        3.7788256043   -2.1957547993    2.6274542220
H        3.8230982443   -2.3317368824    0.1541013530
15   

H        2.0645199036   -1.2497807331   -1.2060674428
C        2.0244734982   -1.2045352860   -0.1211522337
C        3.0313965248   -1.7988719525    0.6450825927
C        2.9814343527   -1.7388866708    2.0436503181
C        1.9210715546   -1.0834283853    2.6976862014
C        0.9160197132   -0.4850757140    1.9090873895
C        0.9674222467   -0.5470987307    0.5123207342
H        0.1854484075   -0.0791665916   -0.0793890461
H        0.0874564577    0.0417525348    2.3755845244
C        1.8644636305   -1.0161122555    4.1688072952
O        2.7727895320   -1.4447172497    4.8270557774
O        0.8119089140   -0.3497498152    4.7476210989
H        0.2118246188   -0.9482730340    5.2015791505
H        3.7735151097   -2.2016826767    2.6282177814
H        3.8568864760   -2.3066962181    0.1546817441
15   

H        2.1054630031   -1.2293147073   -1.2160851605
C        2.0505482182   -1.1936016441   -0.1314905766
C        3.0484525584   -1.7918669992    0.6434522999
C        2.9786943011   -1.7449675425    2.0417457382
C        1.9079335044   -1.0974933085    2.6870041762
C        0.9117508505   -0.4960067256    1.8893575919
C        0.9825266407   -0.5455177924    0.4929998952
H        0.2063026838   -0.0760364693   -0.1049738112
H        0.0733164219    0.0209181736    2.3493629266
C        1.8283876185   -1.0446254665    4.1582480503
O        2.7179557128   -1.5064188120    4.8231435473
O        0.8069598146   -0.3320784798    4.7179659736
H        0.3143662119   -0.8554760994    5.3592634566
H        3.7635665523   -2.2116504306    2.6327669734
H        3.8820116460   -2.2931013066    0.1600464384
15   

H        2.1395105328   -1.2160498771   -1.2221904118
C        2.0722389647   -1.1858926032   -0.1381392545
C        3.0670562166   -1.7782283297    0.6453620355
C        2.9811092139   -1.7386661963    2.0430524622
C        1.8969737798   -1.1044936813    2.6790795244
C        0.9035607535   -0.5098790954    1.8727677945
C        0.9907005975   -0.5516390933    0.4771425028
H        0.2161001305   -0.0875746160   -0.1271112758
H        0.0537560149   -0.0056931988    2.3261862720
C        1.7990665535   -1.0595178949    4.1496603314
O        2.6824184080   -1.5241133775    4.8236025509
O        0.7732467616   -0.3583028982    4.6950932323
H        0.4261062690   -0.8001900064    5.4800685747
H        3.7633096324   -2.2012041626    2.6407307242
H        3.9105166601   -2.2695179411    0.1690295617
15   

H        2.1597705929   -1.2033964980   -1.2262336972
C        2.0832732718   -1.1788244340   -0.1426622797
C        3.0755151792   -1.7681126937    0.6464388291
C        2.9774433325   -1.7359834544    2.0435511633
C        1.8837195420   -1.1121796890    2.6732774552
C        0.8926067133   -0.5213403252    1.8614183905
C        0.9918907016   -0.5555253051    0.4664159006
H        0.2186555401   -0.0946659170   -0.1420083259
H        0.0346213518   -0.0271827578    2.3105995064
C        1.7732893668   -1.0739759448    4.1431246634
O        2.6438080444   -1.5545251973    4.8245058725
O        0.7399032048   -0.3917489861    4.6808940055
H        0.5371981302   -0.7272174910    5.5654997440
H        3.7573435200   -2.1965557086    2.6456725231
H        3.9261453903   -2.2515680649    0.1748891085
15   

H        2.1789669913   -1.1891782457   -1.2286798564
C        2.0952161073   -1.1693737210   -0.1455524431
C        3.0879683960   -1.7519976940    0.6479201169
C        2.9803165930   -1.7262606150    2.0444847460
C        1.8762593531   -1.1158456545    2.6690379228
C        0.8843834073   -0.5322792901    1.8529577155
C        0.9934515669   -0.5596209232    0.4585602415
H        0.2193253534   -0.1046445611   -0.1531445814
H        0.0177767380   -0.0501304684    2.2987463399
C        1.7556163487   -1.0842057432    4.1380139996
O        2.6168335977   -1.5726145196    4.8267461092
O        0.6983563091   -0.4452919620    4.6712270085
H        0.6316778721   -0.6531536498    5.6154453424
H        3.7600927514   -2.1822251148    2.6502287605
H        3.9461103354   -2.2257387515    0.1801524167
15   

H        2.1947375014   -1.1718993541   -1.2287321684
C        2.1059674177   -1.1574190587   -0.1459220097
C        3.1015893155   -1.7322259826    0.6496946701
C        2.9872788596   -1.7136387162    2.0458615305
C        1.8733664065   -1.1187168907    2.6677320630
C        0.8783520864   -0.5435259124    1.8495567117
C        0.9943766556   -0.5631388907    0.4556082695
H        0.2175955094   -0.1149158181   -0.1577180431
H        0.0034217377   -0.0748250170    2.2934684103
C        1.7453979085   -1.0948666235    4.1361303246
O        2.6008502046   -1.5892391563    4.8282333557
O        0.6573499088   -0.5109972470    4.6661220628
H        0.6999389110   -0.5653211222    5.6333332705
H        3.7687697962   -2.1642753408    2.6533679167
H        3.9668079015   -2.1948620180    0.1838599393
15   

H        2.2009823559   -1.1492784815   -1.2274091606
C        2.1103884437   -1.1418748063   -0.1446768052
C        3.1112078093   -1.7098790136    0.6492616518
C        2.9944054563   -1.7007244595    2.0452979820
C        1.8725225548   -1.1226136284    2.6688219928
C        0.8719832434   -0.5547475743    1.8522414104
C        0.9908374939   -0.5643550667    0.4584088719
H        0.2096734865   -0.1221331189   -0.1537024058
H       -0.0099695716   -0.1004093161    2.2971437652
C        1.7418525834   -1.1091454935    4.1372193448
O        2.5956212908   -1.6110535645    4.8255198551
O        0.6233568342   -0.5811941972    4.6668987331
H        0.7380839982   -0.4603478616    5.6215896631
H        3.7795791278   -2.1469072738    2.6513536649
H        3.9821294396   -2.1604603514    0.1822319113
15   

H        2.2026976790   -1.1256014232   -1.2237546232
C        2.1119331499   -1.1268847260   -0.1410068186
C        3.1182428985   -1.6906775427    0.6489068124
C        3.0011358274   -1.6930444189    2.0449202796
C        1.8732985031   -1.1310633932    2.6726769242
C        0.8668929068   -0.5679393552    1.8599345940
C        0.9863269678   -0.5656078877    0.4660953003
H        0.2005685290   -0.1274446377   -0.1430521965
H       -0.0207104027   -0.1274573135    2.3074055067
C        1.7425057022   -1.1297618481    4.1413487381
O        2.5948292523   -1.6432847721    4.8216789977
O        0.5999696414   -0.6453359559    4.6728183693
H        0.7515957899   -0.3386902404    5.5778783972
H        3.7903771447   -2.1366875161    2.6475811876
H        3.9934774696   -2.1295432671    0.1787777706
15   

H        2.2024823988   -1.1019440694   -1.2185553522
C        2.1119022474   -1.1140235994   -0.1358498726
C        3.1223021045   -1.6781167738    0.6485532949
C        3.0053601897   -1.6947197005    2.0444542779
C        1.8737105770   -1.1466520527    2.6777359361
C        0.8627480761   -0.5838444361    1.8704088133
C        0.9821272114   -0.5671844468    0.4766447738
H        0.1928266244   -0.1297625282   -0.1284593636
H       -0.0290772123   -0.1558081621    2.3213994284
C        1.7438508674   -1.1595768666    4.1464720475
O        2.5897002815   -1.6921276373    4.8182492012
O        0.5891191364   -0.6919566598    4.6844649821
H        0.7563617458   -0.2017551547    5.4991357891
H        3.7976014773   -2.1390585361    2.6427141652
H        4.0004581389   -2.1065311320    0.1742256220
15   

H        2.1953609283   -1.0663982241   -1.2108954570
C        2.1066649524   -1.0919040186   -0.1282510335
C        3.1239639729   -1.6550194936    0.6478125279
C        3.0094442397   -1.6892376200    2.0435219035
C        1.8734311464   -1.1600172234    2.6850123655
C        0.8549391634   -0.5989626421    1.8860768597
C        0.9721566186   -0.5643113022    0.4924001633
H        0.1772350261   -0.1287163275   -0.1066537410
H       -0.0417702056   -0.1876470698    2.3427172348
C        1.7466811696   -1.1926938506    4.1535312613
O        2.5937540428   -1.7314971790    4.8159724646
O        0.5843044840   -0.7355723178    4.7051138892
H        0.7466948565   -0.0720224771    5.3842213722
H        3.8068013563   -2.1332933501    2.6352647546
H        4.0054386086   -2.0694184766    0.1671736181
15   

H        2.1905477224   -1.0213883452   -1.1987903154
C        2.1017209525   -1.0645466437   -0.1166909421
C        3.1207558809   -1.6369318440    0.6502437829
C        3.0057332579   -1.6948544231    2.0450559501
C        1.8682750283   -1.1791160465    2.6946407855
C        0.8474456393   -0.6093581998    1.9051304286
C        0.9649110621   -0.5516565771    0.5121772484
H        0.1680548521   -0.1106965956   -0.0803921735
H       -0.0525486811   -0.2119843794    2.3675035431
C        1.7415560525   -1.2388603941    4.1617148102
O        2.5707986420   -1.8107868799    4.8154003260
O        0.6010662935   -0.7318610651    4.7354519092
H        0.7746081666    0.0716806668    5.2340629708
H        3.8038329078   -2.1467415695    2.6299714442
H        4.0036893134   -2.0406513869    0.1631593698
15   

H        2.1933773337   -0.9585891051   -1.1807849985
C        2.1027729669   -1.0221951038   -0.0998082419
C        3.1220295693   -1.6064670278    0.6578008416
C        3.0042613488   -1.6921129089    2.0508731004
C        1.8645695111   -1.1913453605    2.7078769143
C        0.8429085439   -0.6101937351    1.9280131754
C        0.9629537538   -0.5253125912    0.5366063863
H        0.1652595211   -0.0772860009   -0.0495678097
H       -0.0614265710   -0.2288812161    2.3953440025
C        1.7335516212   -1.2860274488    4.1720040923
O        2.5470794022   -1.8862187993    4.8167186007
O        0.6300193536   -0.7166803774    4.7707449260
H        0.8012632659    0.1859191574    5.0515072455
H        3.8016590237   -2.1543681113    2.6287695726
H        4.0068323872   -1.9987516866    0.1647052419
15   

H        2.1960985248   -0.8972113124   -1.1598415992
C        2.1040388631   -0.9793060859   -0.0801962141
C        3.1227982308   -1.5758697685    0.6684076474
C        3.0027447000   -1.6868028283    2.0594081178
C        1.8620051385   -1.1980369685    2.7233573189
C        0.8401408631   -0.6051537906    1.9526601712
C        0.9623438980   -0.4955706947    0.5631037574
H        0.1643425419   -0.0402851185   -0.0171119381
H       -0.0679743278   -0.2380989227    2.4240059526
C        1.7266546409   -1.3254933139    4.1840171593
O        2.5229916889   -1.9593575847    4.8163591587
O        0.6772039887   -0.6878346228    4.8066287560
H        0.8181736138    0.2612559474    4.8588873728
H        3.7989622010   -2.1598044390    2.6303671618
H        4.0085898350   -1.9589603931    0.1697899297
15   

H        2.1842837955   -0.8585714069   -1.1414696365
C        2.0943911365   -0.9525364566   -0.0625703804
C        3.1143846809   -1.5582441890    0.6768468068
C        2.9970435004   -1.6853284449    2.0665811563
C        1.8585852300   -1.2025974213    2.7386679432
C        0.8345070600   -0.6014886537    1.9771893407
C        0.9539591370   -0.4762346845    0.5886179486
H        0.1545041495   -0.0157795597    0.0144334988
H       -0.0748366784   -0.2435731801    2.4530367318
C        1.7265393064   -1.3498761132    4.1973771368
O        2.5034087052   -2.0224237029    4.8141474954
O        0.7378277358   -0.6540267079    4.8415011394
H        0.8070926336    0.2927333846    4.6857291610
H        3.7938461116   -2.1659219587    2.6305014215
H        3.9988844807   -1.9363379220    0.1720619192
15   

H        2.1519452043   -0.8483876036   -1.1305822680
C        2.0684019890   -0.9471892899   -0.0515714033
C        3.0908365775   -1.5603858379    0.6780507327
C        2.9819743479   -1.6937070583    2.0677288296
C        1.8505825590   -1.2086844189    2.7499159249
C        0.8228018231   -0.6013047388    1.9982719324
C        0.9337150528   -0.4703479887    0.6093681064
H        0.1321168545   -0.0054472271    0.0417325020
H       -0.0838837250   -0.2448956832    2.4799960776
C        1.7320799397   -1.3605367496    4.2090372779
O        2.4827995999   -2.0780554326    4.8083043997
O        0.8064534336   -0.6146942322    4.8726871738
H        0.7703461006    0.2910990003    4.5467632775
H        3.7807969093   -2.1795566509    2.6243887445
H        3.9708249927   -1.9392090581    0.1658889768
15   

H        2.1034281291   -0.8647323759   -1.1265610551
C        2.0299447231   -0.9618846274   -0.0466427737
C        3.0549658441   -1.5824813856    0.6727593914
C        2.9596145912   -1.7129568725    2.0635118418
C        1.8403925111   -1.2166606442    2.7574640598
C        0.8086376608   -0.6030553073    2.0161181458
C        0.9059072680   -0.4755940853    0.6256805636
H        0.1022857381   -0.0056271358    0.0650845292
H       -0.0911832625   -0.2394317208    2.5047688656
C        1.7446312744   -1.3600023303    4.2189677666
O        2.4629322401   -2.1234549509    4.8019628397
O        0.8796504269   -0.5710367319    4.8998210819
H        0.7136785513    0.2641547569    4.4462994831
H        3.7609916250   -2.2031279478    2.6127857918
H        3.9269210354   -1.9684240601    0.1521629486
15   

H        2.0483716803   -0.9004103210   -1.1277967464
C        1.9860115331   -0.9912922431   -0.0466180152
C        3.0102239579   -1.6234078092    0.6635123501
C        2.9298570749   -1.7445982270    2.0558592220
C        1.8278834723   -1.2264035075    2.7613005446
C        0.7957477403   -0.6018670646    2.0292944622
C        0.8776483935   -0.4847289746    0.6367657908
H        0.0748302131   -0.0057045461    0.0827151096
H       -0.0926447850   -0.2202691988    2.5243671541
C        1.7595380070   -1.3521456080    4.2260588572
O        2.4386596347   -2.1607815522    4.7957903969
O        0.9540626887   -0.5217672158    4.9195987469
H        0.6435407285    0.2201966115    4.3848134531
H        3.7315662235   -2.2416884348    2.5984803211
H        3.8706038326   -2.0242028905    0.1348839720
15   

H        1.9917913688   -0.9392916862   -1.1330658591
C        1.9428055006   -1.0198662647   -0.0503772003
C        2.9616869053   -1.6703966593    0.6501049025
C        2.8991580212   -1.7770342045    2.0443351513
C        1.8214338762   -1.2257538834    2.7626950537
C        0.7944338490   -0.5812689013    2.0399399558
C        0.8580568388   -0.4798260536    0.6450023703
H        0.0601674155    0.0153255771    0.0980783994
H       -0.0754945814   -0.1674585604    2.5406505216
C        1.7842938436   -1.3319329438    4.2312348889
O        2.4463763271   -2.1623277464    4.7902588936
O        1.0071194014   -0.4880788124    4.9361972834
H        0.5258321485    0.1307977126    4.3713620098
H        3.6984682419   -2.2865867127    2.5789348888
H        3.8049746467   -2.0954895850    0.1129514546
