15   

H        1.8843090962   -1.1988837479   -1.1371972047
C        1.8987539570   -1.1503687873   -0.0515944334
C        2.9604591694   -1.7143987953    0.6608115557
C        2.9825595402   -1.6496254593    2.0590598100
C        1.9375734170   -1.0280140159    2.7676638459
C        0.8786257605   -0.4522131264    2.0339941349
C        0.8607736561   -0.5161196530    0.6357254542
H        0.0424129426   -0.0653670727    0.0806918444
H        0.0687452467    0.0717713876    2.5334834241
C        1.9680897212   -0.9741908872    4.2380961931
O        2.9986689886   -1.1458832446    4.8281131912
O        0.8177008376   -0.7689023661    4.9117254249
H        0.0392105000   -0.8750360873    4.3499263529
H        3.8159433983   -2.0892050122    2.6035909231
H        3.7725597886   -2.2027886278    0.1294874198
15   

H        1.8832551803   -1.2653087447   -1.1391077123
C        1.8971233142   -1.2038734096   -0.0541675097
C        2.9492823874   -1.7750951906    0.6669568607
C        2.9713235722   -1.6924611653    2.0644556711
C        1.9359905951   -1.0439474746    2.7630613886
C        0.8867215397   -0.4622842408    2.0205427558
C        0.8682423666   -0.5449544522    0.6234606986
H        0.0572844711   -0.0884308298    0.0623196997
H        0.0861513104    0.0813421035    2.5147474094
C        1.9669692172   -0.9570638609    4.2318026208
O        2.9798986341   -1.1865614993    4.8318058916
O        0.8201798788   -0.6788194542    4.8963881059
H        0.0378185925   -0.9607088413    4.4072844056
H        3.7985284062   -2.1356791332    2.6153308893
H        3.7547721758   -2.2816265057    0.1426579178
15   

H        1.8953624315   -1.3144705249   -1.1452242770
C        1.9052996800   -1.2436607452   -0.0608383051
C        2.9495603159   -1.8171640886    0.6701530323
C        2.9668469495   -1.7216157915    2.0670813908
C        1.9348759823   -1.0562869779    2.7548640567
C        0.8932562174   -0.4741304358    2.0023080555
C        0.8790409781   -0.5701946400    0.6062180968
H        0.0736245064   -0.1123201490    0.0382754358
H        0.0953117803    0.0794370721    2.4901739134
C        1.9609908645   -0.9456829309    4.2222495775
O        2.9519525252   -1.2278115673    4.8353835352
O        0.8187592339   -0.5923984266    4.8733959186
H        0.0425716754   -1.0278574338    4.5047499681
H        3.7888416820   -2.1653698150    2.6251529192
H        3.7530821259   -2.3346596328    0.1536778666
15   

H        1.9218948051   -1.3341835841   -1.1565899510
C        1.9243273124   -1.2608075951   -0.0723649914
C        2.9606884149   -1.8368403206    0.6680058664
C        2.9681125287   -1.7377874756    2.0649363945
C        1.9345166601   -1.0649998323    2.7430611038
C        0.9004542803   -0.4819977206    1.9809976154
C        0.8956735650   -0.5819158815    0.5852610459
H        0.0953273472   -0.1230850989    0.0110177576
H        0.0999033531    0.0730919872    2.4631121018
C        1.9493363838   -0.9460740059    4.2102333606
O        2.9157964688   -1.2750075839    4.8379326195
O        0.8161977537   -0.5119863117    4.8460295134
H        0.0570666120   -1.0666835643    4.6424416260
H        3.7843527076   -2.1831452252    2.6299841651
H        3.7658284467   -2.3587682086    0.1586501118
15   

H        1.9622377968   -1.3205165566   -1.1735137666
C        1.9533541364   -1.2519710633   -0.0890455960
C        2.9810022111   -1.8324979123    0.6600155529
C        2.9731176396   -1.7402699968    2.0575239524
C        1.9333222071   -1.0686208301    2.7273908239
C        0.9077439391   -0.4823961127    1.9565362671
C        0.9178785317   -0.5757912837    0.5604745980
H        0.1228838553   -0.1149993425   -0.0195210208
H        0.1001327290    0.0667650511    2.4337727822
C        1.9291472176   -0.9585095122    4.1957072780
O        2.8728462897   -1.3253088097    4.8365547622
O        0.8133990387   -0.4410092316    4.8144934309
H        0.0849154923   -1.0676539482    4.8165609711
H        3.7823258753   -2.1897760963    2.6292000623
H        3.7909332719   -2.3530257184    0.1569572397
15   

H        2.0137941418   -1.2837772229   -1.1913541745
C        1.9899432470   -1.2264685111   -0.1064982719
C        3.0071591488   -1.8144835401    0.6509564014
C        2.9789447451   -1.7379035338    2.0492381897
C        1.9296933550   -1.0732624924    2.7115418773
C        0.9144636976   -0.4804139316    1.9320853359
C        0.9444948074   -0.5585923558    0.5354399863
H        0.1560030934   -0.0938497979   -0.0501696239
H        0.0968690410    0.0580831082    2.4045029528
C        1.8997871848   -0.9847667810    4.1816034081
O        2.8238412094   -1.3846559978    4.8327016725
O        0.8135931305   -0.3839986397    4.7813436128
H        0.1343853978   -1.0226276622    5.0130069205
H        3.7794409478   -2.1945675015    2.6272961237
H        3.8242146491   -2.3295180448    0.1538985690
15   

H        2.0652325758   -1.2485492382   -1.2060972603
C        2.0250912244   -1.2034717353   -0.1211786054
C        3.0319464065   -1.7979282037    0.6450521994
C        2.9818387751   -1.7381973395    2.0436255637
C        1.9213933897   -1.0828819408    2.6976720085
C        0.9164253518   -0.4843834013    1.9090770767
C        0.9679736026   -0.5461515043    0.5123043512
H        0.1860418477   -0.0781431654   -0.0794006326
H        0.0877792320    0.0423034993    2.3755864297
C        1.8644636305   -1.0161122555    4.1688072952
O        2.7727895320   -1.4447172497    4.8270557774
O        0.8119089140   -0.3497498152    4.7476210989
H        0.2118246188   -0.9482730340    5.2015791505
H        3.7738355300   -2.2011390749    2.6281912530
H        3.8574777930   -2.3056791729    0.1546452624
15   

H        2.1049901305   -1.2300414334   -1.2160825453
C        2.0501399833   -1.1942303124   -0.1314879008
C        3.0480912492   -1.7924248595    0.6434491846
C        2.9784303966   -1.7453758091    2.0417422911
C        1.9077236320   -1.0978180405    2.6870057433
C        0.9114839859   -0.4964181378    1.8893653579
C        0.9821622398   -0.5460790149    0.4930079013
H        0.2059084775   -0.0766424519   -0.1049622800
H        0.0731026251    0.0205900947    2.3493737825
C        1.8283876185   -1.0446254665    4.1582480503
O        2.7179557128   -1.5064188120    4.8231435473
O        0.8069598146   -0.3320784798    4.7179659736
H        0.3143662119   -0.8554760994    5.3592634566
H        3.7633579996   -2.2119714391    2.6327590993
H        3.8816225404   -2.2937011929    0.1600388716
15   

H        2.1383212027   -1.2178866617   -1.2222072157
C        2.0712129821   -1.1874820119   -0.1381527955
C        3.0661505597   -1.7796364496    0.6453326351
C        2.9804491311   -1.7396964153    2.0430269544
C        1.8964478870   -1.1053153990    2.6790728156
C        0.9028893100   -0.5109226846    1.8727780114
C        0.9897833454   -0.5530609020    0.4771483414
H        0.2151059280   -0.0891111834   -0.1270949221
H        0.0532161621   -0.0065283552    2.3262112871
C        1.7990665535   -1.0595178949    4.1496603314
O        2.6824184080   -1.5241133775    4.8236025509
O        0.7732467616   -0.3583028982    4.6950932323
H        0.4261062690   -0.8001900064    5.4800685747
H        3.7627898728   -2.2020116373    2.6406943212
H        3.9095419973   -2.2710301057    0.1689850393
15   

H        2.1585663948   -1.2052777435   -1.2262706903
C        2.0822348206   -1.1804525645   -0.1426933190
C        3.0745995599   -1.7695541186    0.6463925407
C        2.9767767332   -1.7370380128    2.0435129333
C        1.8831880770   -1.1130218543    2.6732620037
C        0.8919269147   -0.5224110413    1.8614188266
C        0.9909617179   -0.5569831216    0.4664077119
H        0.2176477187   -0.0962419597   -0.1420058288
H        0.0340739576   -0.0280409666    2.3106189387
C        1.7732893668   -1.0739759448    4.1431246634
O        2.6438080444   -1.5545251973    4.8245058725
O        0.7399032048   -0.3917489861    4.6808940055
H        0.5371981302   -0.7272174910    5.5654997440
H        3.7568198709   -2.1973813479    2.6456245382
H        3.9251603395   -2.2531150799    0.1748256044
15   

H        2.1782714305   -1.1903333886   -1.2287106447
C        2.0946157624   -1.1703729994   -0.1455787247
C        3.0874390922   -1.7528809894    0.6478900227
C        2.9799309906   -1.7269061594    2.0444611550
C        1.8759513691   -1.1163618249    2.6690246100
C        0.8839894345   -0.5329370571    1.8529480571
C        0.9929138290   -0.5605165412    0.4585438654
H        0.2187420744   -0.1056138822   -0.1531581230
H        0.0174593290   -0.0506589413    2.2987456296
C        1.7556163487   -1.0842057432    4.1380139996
O        2.6168335977   -1.5726145196    4.8267461092
O        0.6983563091   -0.4452919620    4.6712270085
H        0.6316778721   -0.6531536498    5.6154453424
H        3.7597907925   -2.1827297175    2.6502036839
H        3.9455416168   -2.2266863777    0.1801150878
15   

H        2.1947374488   -1.1718992802   -1.2287321766
C        2.1059673972   -1.1574189835   -0.1459220128
C        3.1015892305   -1.7322260428    0.6496946541
C        2.9872788001   -1.7136387786    2.0458615173
C        1.8733664231   -1.1187168267    2.6677320667
C        0.8783521725   -0.5435256949    1.8495567320
C        0.9943767261   -0.5631386704    0.4556082882
H        0.2175956349   -0.1149154887   -0.1577180135
H        0.0034218868   -0.0748246869    2.2934684404
C        1.7453979085   -1.0948666235    4.1361303246
O        2.6008502046   -1.5892391563    4.8282333557
O        0.6573499088   -0.5109972470    4.6661220628
H        0.6999389110   -0.5653211222    5.6333332705
H        3.7687696886   -2.1642755171    2.6533678855
H        3.9668077477   -2.1948621910    0.1838599102
15   

H        2.2015883920   -1.1480741847   -1.2273648131
C        2.1109134699   -1.1408341894   -0.1446381228
C        3.1116729505   -1.7089597879    0.6492888969
C        2.9947461783   -1.7000535890    2.0453162567
C        1.8727949523   -1.1220779561    2.6688421864
C        0.8723292285   -0.5540642093    1.8522745349
C        0.9913079496   -0.5634232390    0.4584507690
H        0.2101817523   -0.1211238442   -0.1536527924
H       -0.0096923361   -0.0998600581    2.2971774977
C        1.7418525834   -1.1091454935    4.1372193448
O        2.5956212908   -1.6110535645    4.8255198551
O        0.6233568342   -0.5811941972    4.6668987331
H        0.7380839982   -0.4603478616    5.6215896631
H        3.7798454904   -2.1463818763    2.6513612780
H        3.9826281965   -2.1594730410    0.1822560837
15   

H        2.2036466094   -1.1235808778   -1.2236672910
C        2.1127563637   -1.1251392333   -0.1409303607
C        3.1189741563   -1.6891345726    0.6489556513
C        3.0016726630   -1.6919181388    2.0449515736
C        1.8737273217   -1.1301653431    2.6727169196
C        0.8674354255   -0.5667949997    1.8600055839
C        0.9870640364   -0.5640465438    0.4661832840
H        0.2013632392   -0.1257542005   -0.1429456663
H       -0.0202773575   -0.1265387815    2.3074815097
C        1.7425057022   -1.1297618481    4.1413487381
O        2.5948292523   -1.6432847721    4.8216789977
O        0.5999696414   -0.6453359559    4.6728183693
H        0.7515957899   -0.3386902404    5.5778783972
H        3.7907969322   -2.1358034695    2.6475877517
H        3.9942613673   -2.1278847002    0.1788164728
15   

H        2.2034011482   -1.0999612150   -1.2184504841
C        2.1126989271   -1.1123104724   -0.1357582179
C        3.1230101454   -1.6766009434    0.6486171060
C        3.0058796733   -1.6936125341    2.0444969204
C        1.8741248704   -1.1457701218    2.6777834923
C        0.8632718264   -0.5827223446    1.8704879378
C        0.9828396914   -0.5656532790    0.4767445991
H        0.1935947996   -0.1281058286   -0.1283414358
H       -0.0286598600   -0.1549088758    2.3214795574
C        1.7438508674   -1.1595768666    4.1464720475
O        2.5897002815   -1.6921276373    4.8182492012
O        0.5891191364   -0.6919566598    4.6844649821
H        0.7563617458   -0.2017551547    5.4991357891
H        3.7980078246   -2.1381878803    2.6427313366
H        4.0012177245   -2.1049009453    0.1742813294
15   

H        2.1957230183   -1.0656120099   -1.2108446518
C        2.1069786262   -1.0912245913   -0.1282066941
C        3.1242430339   -1.6544169770    0.6478463984
C        3.0096487883   -1.6887970096    2.0435455195
C        1.8735936901   -1.1596671061    2.6850354260
C        0.8551443795   -0.5985186406    1.8861118394
C        0.9724364563   -0.5637051777    0.4924453224
H        0.1775366653   -0.1280614745   -0.1066021007
H       -0.0416072609   -0.1872925021    2.3427497715
C        1.7466811696   -1.1926938506    4.1535312613
O        2.5937540428   -1.7314971790    4.8159724646
O        0.5843044840   -0.7355723178    4.7051138892
H        0.7466948565   -0.0720224771    5.3842213722
H        3.8069618400   -2.1329456213    2.6352782228
H        4.0057385511   -2.0687697714    0.1672058613
15   

H        2.1898875953   -1.0226446593   -1.1988993859
C        2.1011520756   -1.0656334859   -0.1167858170
C        3.1202522463   -1.6378973044    0.6501525576
C        3.0053669585   -1.6955618222    2.0449866891
C        1.8679851522   -1.1796781866    2.6945912789
C        0.8470770072   -0.6100690706    1.9050754309
C        0.9644048211   -0.5526259716    0.5120998239
H        0.1675064878   -0.1117423928   -0.0804696535
H       -0.0528423850   -0.2125506547    2.3674698864
C        1.7415560525   -1.2388603941    4.1617148102
O        2.5707986420   -1.8107868799    4.8154003260
O        0.6010662935   -0.7318610651    4.7354519092
H        0.7746081666    0.0716806668    5.2340629708
H        3.8035450632   -2.1473002728    2.6299097843
H        4.0031460185   -2.0416905048    0.1630573685
15   

H        2.1918233743   -0.9611301288   -1.1810795184
C        2.1014405975   -1.0243965678   -0.1000643534
C        3.1208535376   -1.6084301538    0.6575169901
C        3.0034118684   -1.6935558722    2.0506478180
C        1.8639017318   -1.1924896409    2.7077411513
C        0.8420553199   -0.6116322939    1.9279029461
C        0.9617730365   -0.5272726066    0.5364349872
H        0.1639757980   -0.0793942308   -0.0497117094
H       -0.0621066192   -0.2300204185    2.3953236625
C        1.7335516212   -1.2860274488    4.1720040923
O        2.5470794022   -1.8862187993    4.8167186007
O        0.6300193536   -0.7166803774    4.7707449260
H        0.8012632659    0.1859191574    5.0515072455
H        3.8009879843   -2.1555119512    2.6285371233
H        4.0055577015   -2.0008657656    0.1643643222
15   

H        2.1948966376   -0.8988765976   -1.1600850260
C        2.1030130801   -0.9807515257   -0.0804079813
C        3.1218946832   -1.5771651830    0.6681476949
C        3.0020959531   -1.6877589409    2.0591959256
C        1.8614987548   -1.1987930797    2.7232435410
C        0.8394916579   -0.6060970379    1.9525944398
C        0.9614389202   -0.4968544660    0.5629871517
H        0.1633556019   -0.0416606025   -0.0171871631
H       -0.0684915753   -0.2388401471    2.4240361831
C        1.7266546409   -1.3254933139    4.1840171593
O        2.5229916889   -1.9593575847    4.8163591587
O        0.6772039887   -0.6878346228    4.8066287560
H        0.8181736138    0.2612559474    4.8588873728
H        3.7984467632   -2.1605662126    2.6301302015
H        4.0076058638   -1.9603565282    0.1694641560
15   

H        2.1844737163   -0.8583450237   -1.1414318517
C        2.0945526895   -0.9523395266   -0.0625375232
C        3.1145269383   -1.5580665879    0.6768907297
C        2.9971452369   -1.6851966928    2.0666177262
C        1.8586641042   -1.2024935959    2.7386856797
C        0.8346082606   -0.6013603841    1.9771958177
C        0.9541010323   -0.4760603451    0.5886324101
H        0.1546591547   -0.0155936621    0.0144388620
H       -0.0747561722   -0.2434733087    2.4530251788
C        1.7265393064   -1.3498761132    4.1973771368
O        2.5034087052   -2.0224237029    4.8141474954
O        0.7378277358   -0.6540267079    4.8415011394
H        0.8070926336    0.2927333846    4.6857291610
H        3.7939274149   -2.1658162527    2.6305445948
H        3.9990400463   -1.9361462730    0.1721187203
15   

H        2.1533424501   -0.8469407976   -1.1303302013
C        2.0695873573   -0.9459278287   -0.0513527363
C        3.0918792096   -1.5592438596    0.6783715270
C        2.9827172582   -1.6928559557    2.0680004861
C        1.8511560242   -1.2080135052    2.7500331047
C        0.8235390554   -0.6004810708    1.9982843002
C        0.9347533667   -0.4692316819    0.6094349278
H        0.1332532735   -0.0042606014    0.0417174744
H       -0.0832967593   -0.2442565686    2.4798632544
C        1.7320799397   -1.3605367496    4.2090372779
O        2.4827995999   -2.0780554326    4.8083043997
O        0.8064534336   -0.6146942322    4.8726871738
H        0.7703461006    0.2910990003    4.5467632775
H        3.7813920965   -2.1788716669    2.6247266593
H        3.9719682488   -1.9379774421    0.1663171440
15   

H        2.1051557812   -0.8631569690   -1.1262981420
C        2.0314080010   -0.9605072318   -0.0464157122
C        3.0562507146   -1.5812340188    0.6731320963
C        2.9605275565   -1.7120233856    2.0638327519
C        1.8410964231   -1.2159203032    2.7575834557
C        0.8095452560   -0.6021473720    2.0160873089
C        0.9071883064   -0.4743702040    0.6257085887
H        0.1036906113   -0.0043268021    0.0649979705
H       -0.0904579202   -0.2387230240    2.5045518029
C        1.7446312744   -1.3600023303    4.2189677666
O        2.4629322401   -2.1234549509    4.8019628397
O        0.8796504269   -0.5710367319    4.8998210819
H        0.7136785513    0.2641547569    4.4462994831
H        3.7617225883   -2.2023786231    2.6132067376
H        3.9283313407   -1.9670831395    0.1526774928
15   

H        2.0495214080   -0.8994824162   -1.1276585653
C        1.9869844706   -0.9904783777   -0.0464996459
C        3.0110749384   -1.6226754631    0.6637367271
C        2.9304600026   -1.7440488733    2.0560556556
C        1.8283500283   -1.2259608392    2.7613603811
C        0.7963531698   -0.6013192173    2.0292447171
C        0.8785025745   -0.4839971803    0.6367487416
H        0.0757698131   -0.0049236746    0.0826159478
H       -0.0921562681   -0.2198323264    2.5241936897
C        1.7595380070   -1.3521456080    4.2260588572
O        2.4386596347   -2.1607815522    4.7957903969
O        0.9540626887   -0.5217672158    4.9195987469
H        0.6435407285    0.2201966115    4.3848134531
H        3.7320462397   -2.2412535209    2.5987526321
H        3.8715367226   -2.0234219400    0.1352055919
15   

H        1.9917674671   -0.9393099219   -1.1330680336
C        1.9427852559   -1.0198823149   -0.0503790449
C        2.9616693392   -1.6704108171    0.6501008664
C        2.8991456027   -1.7770448115    2.0443315730
C        1.8214241413   -1.2257627116    2.7626941748
C        0.7944210474   -0.5812801500    2.0399413344
C        0.8580388827   -0.4798408699    0.6450032038
H        0.0601475559    0.0153095307    0.0980809123
H       -0.0755051308   -0.1674679652    2.5406542836
C        1.7842938436   -1.3319329438    4.2312348889
O        2.4463763271   -2.1623277464    4.7902588936
O        1.0071194014   -0.4880788124    4.9361972834
H        0.5258321485    0.1307977126    4.3713620098
H        3.6984585054   -2.2865948265    2.5789296966
H        3.8049555101   -2.0955044228    0.1129454792
