15   

H        1.8844933256   -1.1974201326   -1.1372584785
C        1.8989337251   -1.1491128388   -0.0516463802
C        2.9606385092   -1.7132787332    0.6606500655
C        2.9827133037   -1.6488094607    2.0589105018
C        1.9377028011   -1.0273780037    2.7676381067
C        0.8787666214   -0.4514143064    2.0340831782
C        0.8609407372   -0.5150152592    0.6357977509
H        0.0425733547   -0.0641723193    0.0808481420
H        0.0688490935    0.0724055376    2.5336846753
C        1.9680883683   -0.9741836753    4.2380957310
O        2.9986688411   -1.1458666493    4.8281181973
O        0.8176975165   -0.7689074310    4.9117198680
H        0.0392111191   -0.8750488027    4.3499162352
H        3.8160682981   -2.0885458860    2.6033599748
H        3.7727414121   -2.2015679528    0.1292362029
15   

H        1.8836835222   -1.2630108573   -1.1392453415
C        1.8975223799   -1.2019013244   -0.0542863648
C        2.9496724534   -1.7733274654    0.6666857285
C        2.9716427875   -1.6911710196    2.0642106736
C        1.9362479094   -1.0429492482    2.7629976137
C        0.8870061117   -0.4610404847    2.0206384706
C        0.8685990887   -0.5432299744    0.6235235116
H        0.0576353493   -0.0865728475    0.0625007696
H        0.0863563987    0.0823149750    2.5150111610
C        1.9669687079   -0.9570535557    4.2318023284
O        2.9799005709   -1.1865343014    4.8318113293
O        0.8201727735   -0.6788308861    4.8963827097
H        0.0378198781   -0.9607343381    4.4072733019
H        3.7987929462   -2.1346290973    2.6149758190
H        3.7551815326   -2.2796943009    0.1422565212
15   

H        1.8958567665   -1.3125268940   -1.1453663869
C        1.9057476063   -1.2419908199   -0.0609621670
C        2.9499880493   -1.8156642906    0.6699221089
C        2.9671850873   -1.7205188859    2.0668768370
C        1.9351434255   -1.0554386437    2.7547950138
C        0.8935606946   -0.4730767813    2.0023510723
C        0.8794361977   -0.5687352725    0.6062296808
H        0.0740232643   -0.1107511061    0.0383713432
H        0.0955333588    0.0802572306    2.4903451760
C        1.9609905227   -0.9456727612    4.2222483695
O        2.9519553600   -1.2277853219    4.8353878664
O        0.8187513595   -0.5924102168    4.8733903761
H        0.0425735843   -1.0278828458    4.5047395272
H        3.7891214373   -2.1644754170    2.6248739761
H        3.7535381047   -2.3330205282    0.1533506014
15   

H        1.9219717830   -1.3339157902   -1.1566099833
C        1.9243964367   -1.2605748169   -0.0723826416
C        2.9607575158   -1.8366232647    0.6679757446
C        2.9681673854   -1.7376224447    2.0649097523
C        1.9345566092   -1.0648738630    2.7430506578
C        0.9004966679   -0.4818512336    1.9810003147
C        0.8957306720   -0.5817164129    0.5852595638
H        0.0953827895   -0.1228763545    0.0110261240
H        0.0999304165    0.0732023892    2.4631308499
C        1.9493342915   -0.9460609383    4.2102323805
O        2.9158055587   -1.2749738308    4.8379288803
O        0.8161862423   -0.5120029357    4.8460307092
H        0.0570692655   -1.0667189309    4.6424410287
H        3.7844014228   -2.1830022480    2.6299490923
H        3.7659048881   -2.3585287925    0.1586085854
15   

H        1.9614594274   -1.3224520135   -1.1733831978
C        1.9526693592   -1.2536320346   -0.0889316134
C        2.9803838915   -1.8339641204    0.6601907643
C        2.9726529474   -1.7413280550    2.0576742669
C        1.9329480678   -1.0694522200    2.7274529570
C        0.9072827046   -0.4834599216    1.9565352628
C        0.9172635401   -0.5772639671    0.5605015184
H        0.1222317169   -0.1165982838   -0.0195440853
H        0.0997710389    0.0659216394    2.4336875673
C        1.9291469593   -0.9584922434    4.1957048625
O        2.8728577852   -1.3252648400    4.8365564315
O        0.8133844471   -0.4410311361    4.8144917730
H        0.0849205742   -1.0676986832    4.8165559905
H        3.7819585595   -2.1906076222    2.6293904329
H        3.7902746853   -2.3546131730    0.1571934465
15   

H        2.0124567457   -1.2864746180   -1.1912261753
C        1.9887775074   -1.2287900153   -0.1063863669
C        3.0061170206   -1.8165350816    0.6511130805
C        2.9781723710   -1.7393909859    2.0493701461
C        1.9290748792   -1.0744378020    2.7116018819
C        0.9136895655   -0.4819140386    1.9320996287
C        0.9434506911   -0.5606573552    0.5354814850
H        0.1548848340   -0.0960883795   -0.0501666018
H        0.0962555159    0.0568899548    2.4044461332
C        1.8997871122   -0.9847514010    4.1816005266
O        2.8238530391   -1.3846174627    4.8327035659
O        0.8135777641   -0.3840208727    4.7813433930
H        0.1343895329   -1.0226726858    5.0130015120
H        3.7788310376   -2.1957349682    2.6274559175
H        3.8230989104   -2.3317326977    0.1541034602
15   

H        2.0645040311   -1.2497908856   -1.2060702885
C        2.0244606774   -1.2045401376   -0.1211551898
C        3.0313922763   -1.7988627027    0.6450793694
C        2.9814344937   -1.7388698376    2.0436468733
C        1.9210669265   -1.0834192857    2.6976824471
C        0.9160061914   -0.4850811238    1.9090843658
C        0.9674049698   -0.5471105982    0.5123178301
H        0.1854249355   -0.0791887053   -0.0793918536
H        0.0874399903    0.0417418285    2.3755823825
C        1.8644648008   -1.0160943889    4.1688027370
O        2.7728100942   -1.4446641856    4.8270544181
O        0.8118864082   -0.3497796604    4.7476219735
H        0.2118289264   -0.9483311713    5.2015783603
H        3.7735220000   -2.2016541601    2.6282144811
H        3.8568855573   -2.3066815742    0.1546785190
15   

H        2.1054455020   -1.2293163134   -1.2160888662
C        2.0505340074   -1.1936003151   -0.1314942137
C        3.0484451332   -1.7918564849    0.6434470427
C        2.9786914168   -1.7449527988    2.0417404893
C        1.9079280276   -1.0974844525    2.6870002431
C        0.9117383897   -0.4960072101    1.8893557591
C        0.9825100704   -0.5455217273    0.4929979200
H        0.2062812340   -0.0760470676   -0.1049746673
H        0.0733025917    0.0209136547    2.3493632141
C        1.8283881370   -1.0446122746    4.1582436765
O        2.7179718929   -1.5063816611    4.8231421996
O        0.8069430448   -0.3321011349    4.7179690519
H        0.3143682362   -0.8555188143    5.3592646619
H        3.7635689237   -2.2116280908    2.6327607884
H        3.8820059787   -2.2930867554    0.1600399995
15   

H        2.1394881607   -1.2160440287   -1.2221952672
C        2.0722204149   -1.1858857392   -0.1381439032
C        3.0670433438   -1.7782161550    0.6453541843
C        2.9811014934   -1.7386524784    2.0430447737
C        1.8969653982   -1.1044844494    2.6790749356
C        0.9035465478   -0.5098752029    1.8727669464
C        0.9906815053   -0.5516362072    0.4771412904
H        0.2160769568   -0.0875755967   -0.1271102018
H        0.0537418520   -0.0056924904    2.3261890984
C        1.7990648920   -1.0595077510    4.1496555281
O        2.6824298442   -1.5240885205    4.8235997111
O        0.7732368745   -0.3583201056    4.6950982431
H        0.4261107457   -0.8002211738    5.4800723659
H        3.7633062434   -2.2011860457    2.6407208263
H        3.9105041660   -2.2695027478    0.1690192302
15   

H        2.1597448258   -1.2033835107   -1.2262396307
C        2.0832519125   -1.1788113978   -0.1426679029
C        3.0755007216   -1.7680937020    0.6464289327
C        2.9774347877   -1.7359642174    2.0435415347
C        1.8837098168   -1.1121670732    2.6732721583
C        0.8925899142   -0.5213336645    1.8614179573
C        0.9918683515   -0.5555182075    0.4664149329
H        0.2186282164   -0.0946631784   -0.1420062416
H        0.0346042043   -0.0271809770    2.3106038314
C        1.7732870249   -1.0739648113    4.1431193128
O        2.6438235577   -1.5544947917    4.8245015410
O        0.7398915337   -0.3917709077    4.6809002893
H        0.5372040601   -0.7272520831    5.5655056809
H        3.7573402324   -2.1965317104    2.6456597917
H        3.9261316354   -2.2515446196    0.1748758618
15   

H        2.1789415137   -1.1891641007   -1.2286857908
C        2.0951946396   -1.1693605388   -0.1455580514
C        3.0879518689   -1.7519821607    0.6479100266
C        2.9803053691   -1.7262462992    2.0444749468
C        1.8762485374   -1.1158354513    2.6690326399
C        0.8843675331   -0.5322713738    1.8529575505
C        0.9934305368   -0.5596114273    0.4585595173
H        0.2193007796   -0.1046368137   -0.1531420879
H        0.0177616582   -0.0501257485    2.2987512243
C        1.7556122556   -1.0841983111    4.1380086188
O        2.6168413565   -1.5725990153    4.8267423208
O        0.6983528723   -0.4453050078    4.6712337923
H        0.6316876847   -0.6531752277    5.6154516743
H        3.7600851803   -2.1822089031    2.6502157471
H        3.9460934411   -2.2257204523    0.1801387977
15   

H        2.1947093251   -1.1718835123   -1.2287385268
C        2.1059431968   -1.1574054159   -0.1459280144
C        3.1015682867   -1.7322139412    0.6496834667
C        2.9872630391   -1.7136295688    2.0458506419
C        1.8733528729   -1.1187091901    2.6677264978
C        0.8783352327   -0.5435165419    1.8495569696
C        0.9943545635   -0.5631266002    0.4556079096
H        0.2175711520   -0.1149023903   -0.1577146655
H        0.0034070126   -0.0748169925    2.2934743193
C        1.7453914501   -1.0948628721    4.1361247707
O        2.6008503096   -1.5892390423    4.8282279659
O        0.6573532767   -0.5109993448    4.6661296362
H        0.6999540803   -0.5653297355    5.6333404788
H        3.7687563300   -2.1642673688    2.6533531954
H        3.9667852510   -2.1948489515    0.1838446516
15   

H        2.2009563665   -1.1492646977   -1.2274151534
C        2.1103655308   -1.1418637676   -0.1446825251
C        3.1111858470   -1.7098729257    0.6492511685
C        2.9943875247   -1.7007220365    2.0452877208
C        1.8725081907   -1.1226096619    2.6688164781
C        0.8719677981   -0.5547386098    1.8522412916
C        0.9908177989   -0.5643427380    0.4584082472
H        0.2096531530   -0.1221172048   -0.1536995959
H       -0.0099820286   -0.1003996161    2.2971488591
C        1.7418442730   -1.1091455964    4.1372136933
O        2.5956126918   -1.6110677238    4.8255151724
O        0.6233657383   -0.5811850372    4.6669061589
H        0.7381070498   -0.4603452269    5.6215966941
H        3.7795617541   -2.1469086087    2.6513399778
H        3.9821050302   -2.1604552099    0.1822177278
15   

H        2.2026728107   -1.1255859272   -1.2237605208
C        2.1119106510   -1.1268730054   -0.1410125269
C        3.1182193378   -1.6906743922    0.6488963018
C        3.0011153064   -1.6930463881    2.0449098685
C        1.8732827489   -1.1310612957    2.6726712389
C        0.8668780950   -0.5679285932    1.8599343103
C        0.9863087491   -0.5655926314    0.4660946107
H        0.2005511192   -0.1274231786   -0.1430494366
H       -0.0207214622   -0.1274440806    2.3074102776
C        1.7424952170   -1.1297652323    4.1413428617
O        2.5948125588   -1.6433128635    4.8216728059
O        0.5999815756   -0.6453155250    4.6728259354
H        0.7516274357   -0.3386777537    5.5778857632
H        3.7903556152   -2.1366961343    2.6475672712
H        3.9934506594   -2.1295427633    0.1787636289
15   

H        2.2024649962   -1.1019280047   -1.2185600681
C        2.1118861370   -1.1140112376   -0.1358545219
C        3.1222848110   -1.6781116062    0.6485449818
C        3.0053444966   -1.6947195835    2.0444459266
C        1.8736981909   -1.1466493226    2.6777309921
C        0.8627367885   -0.5838344112    1.8704080840
C        0.9821140376   -0.5671698476    0.4766438397
H        0.1928143405   -0.1297427472   -0.1284576845
H       -0.0290859120   -0.1557967957    2.3214025994
C        1.7438414781   -1.1595802722    4.1464666813
O        2.5896860048   -1.6921495693    4.8182448066
O        0.5891282398   -0.6919400859    4.6844710685
H        0.7563898927   -0.2017431636    5.4991409894
H        3.7975845894   -2.1390641084    2.6427032276
H        4.0004385806   -2.1065276771    0.1742146212
15   

H        2.1953522833   -1.0663815902   -1.2108988065
C        2.1066557214   -1.0918917744   -0.1282545345
C        3.1239509858   -1.6550173458    0.6478066445
C        3.0094302891   -1.6892416136    2.0435157075
C        1.8734205905   -1.1600164924    2.6850079862
C        0.8549323767   -0.5989515727    1.8860753671
C        0.9721503807   -0.5642948458    0.4923987906
H        0.1772315303   -0.1286926018   -0.1066534491
H       -0.0417744837   -0.1876332008    2.3427182324
C        1.7466703787   -1.1927006338    4.1535260743
O        2.5937320746   -1.7315294789    4.8159687824
O        0.5843146081   -0.7355471359    4.7051185344
H        0.7467312763   -0.0720023406    5.3842247046
H        3.8067840957   -2.1333054260    2.6352570017
H        4.0054233048   -2.0694195190    0.1671662069
15   

H        2.1905534711   -1.0213698336   -1.1987917497
C        2.1017220233   -1.0645341412   -0.1166930026
C        3.1207458576   -1.6369394072    0.6502416067
C        3.0057165960   -1.6948708264    2.0450528279
C        1.8682638315   -1.1791194795    2.6946364405
C        0.8474458460   -0.6093408384    1.9051267908
C        0.9649169911   -0.5516320645    0.5121743837
H        0.1680688778   -0.1106575045   -0.0803950737
H       -0.0525445199   -0.2119582667    2.3675002624
C        1.7415377547   -1.2388741136    4.1617086621
O        2.5707483659   -1.8108536126    4.8153960276
O        0.6010843426   -0.7318112742    4.7354542568
H        0.7746778590    0.0717176422    5.2340679807
H        3.8038068455   -2.1467741217    2.6299687025
H        4.0036755278   -2.0406679526    0.1631578217
15   

H        2.1933847476   -0.9585692640   -1.1807848652
C        2.1027766280   -1.0221800368   -0.0998087065
C        3.1220266397   -1.6064634716    0.6578004580
C        3.0042532327   -1.6921161649    2.0508718389
C        1.8645632572   -1.1913431531    2.7078743511
C        0.8429090463   -0.6101796537    1.9280109610
C        0.9629590100   -0.5252924385    0.5366049579
H        0.1652695921   -0.0772575119   -0.0495694159
H       -0.0614247569   -0.2288638284    2.3953417537
C        1.7335388424   -1.2860344471    4.1719997394
O        2.5470548902   -1.8862473052    4.8167177345
O        0.6300298214   -0.7166576198    4.7707461311
H        0.8013009899    0.1859379278    5.0515046476
H        3.8016451726   -2.1543808610    2.6287686641
H        4.0068281101   -1.9987520743    0.1647055657
15   

H        2.1961116978   -0.8971935228   -1.1598399607
C        2.1040470226   -0.9792927813   -0.0801953464
C        3.1227983848   -1.5758688101    0.6684096839
C        3.0027379471   -1.6868083988    2.0594090411
C        1.8619999106   -1.1980358961    2.7233556277
C        0.8401439351   -0.6051398429    1.9526577121
C        0.9623533927   -0.4955510481    0.5631023391
H        0.1643579170   -0.0402564484   -0.0171143613
H       -0.0679701184   -0.2380805874    2.4240024139
C        1.7266404034   -1.3255009760    4.1840133022
O        2.5229630600   -1.9593881536    4.8163580767
O        0.6772146513   -0.6878127990    4.8066287795
H        0.8182109921    0.2612737249    4.8588856084
H        3.7989485786   -2.1598201870    2.6303692540
H        4.0085888541   -1.9589642672    0.1697936566
15   

H        2.1842854766   -0.8585483073   -1.1414676097
C        2.0943904917   -0.9525179617   -0.0625689518
C        3.1143789849   -1.5582360110    0.6768467342
C        2.9970345029   -1.6853269803    2.0665801416
C        1.8585782953   -1.2025918378    2.7386675139
C        0.8345054292   -0.6014722034    1.9771906210
C        0.9539604697   -0.4762121271    0.5886199975
H        0.1545091297   -0.0157494688    0.0144365173
H       -0.0748368554   -0.2435541345    2.4530389268
C        1.7265273604   -1.3498802070    4.1973750642
O        2.5033872645   -2.0224477502    4.8141403649
O        0.7378355067   -0.6540096401    4.8415042669
H        0.8071218129    0.2927487769    4.6857321843
H        3.7938327859   -2.1659292233    2.6304991047
H        3.9988771692   -1.9363329396    0.1720613866
15   

H        2.1519658038   -0.8483855900   -1.1305806510
C        2.0684170679   -0.9471886816   -0.0515703432
C        3.0908448279   -1.5603922647    0.6780555976
C        2.9819752666   -1.6937155406    2.0677329884
C        1.8505831218   -1.2086873571    2.7499152379
C        0.8228093294   -0.6013005931    1.9982675730
C        0.9337296233   -0.4703422212    0.6093645494
H        0.1321364504   -0.0054363031    0.0417260543
H       -0.0838765365   -0.2448877496    2.4799884463
C        1.7320711998   -1.3605416134    4.2090352845
O        2.4827789562   -2.0780719343    4.8083070248
O        0.8064597221   -0.6146808271    4.8726823357
H        0.7703691066    0.2911116053    4.5467541279
H        3.7807921347   -2.1795707867    2.6243961369
H        3.9708335019   -1.9392194355    0.1658972254
15   

H        2.1034465618   -0.8647360884   -1.1265590430
C        2.0299578551   -0.9618890710   -0.0466411881
C        3.0549724732   -1.5824920216    0.6727650759
C        2.9596142522   -1.7129685264    2.0635170392
C        1.8403918846   -1.2166664845    2.7574643020
C        0.8086435541   -0.6030551106    2.0161143974
C        0.9059198542   -0.4755932980    0.6256774287
H        0.1023030970   -0.0056218412    0.0650783092
H       -0.0911776360   -0.2394275685    2.5047618363
C        1.7446223341   -1.3600076061    4.2189671693
O        2.4629092781   -2.1234719283    4.8019672369
O        0.8796570551   -0.5710231832    4.8998162704
H        0.7137027303    0.2641688277    4.4462888539
H        3.7609859215   -2.2031443732    2.6127945493
H        3.9269279587   -1.9684386557    0.1521720755
15   

H        2.0483847684   -0.9004157826   -1.1277959791
C        1.9860205462   -0.9912978037   -0.0466174916
C        3.0102283769   -1.6234169799    0.6635164155
C        2.9298562591   -1.7446073932    2.0558630472
C        1.8278821027   -1.2264086696    2.7613003010
C        0.7957508432   -0.6018689601    2.0292907237
C        0.8776566054   -0.4847310542    0.6367624117
H        0.0748417989   -0.0057040302    0.0827090690
H       -0.0926421875   -0.2202684955    2.5243606195
C        1.7595309640   -1.3521489483    4.2260582469
O        2.4386431647   -2.1607922615    4.7957947108
O        0.9540667574   -0.5217591351    4.9195930511
H        0.6435555903    0.2202057428    4.3848023805
H        3.7315617242   -2.2417002049    2.5984871994
H        3.8706087621   -2.0242147332    0.1348909086
15   

H        1.9917976260   -0.9392948307   -1.1330649272
C        1.9428089691   -1.0198698235   -0.0503764238
C        2.9616871911   -1.6704029066    0.6501078987
C        2.8991547649   -1.7770408162    2.0443379967
C        1.8214303968   -1.2257578339    2.7626953345
C        0.7944333416   -0.5812705869    2.0399380684
C        0.8580597781   -0.4798275092    0.6450006949
H        0.0601726521    0.0153259560    0.0980750268
H       -0.0754954544   -0.1674588254    2.5406469238
C        1.7842871622   -1.3319355372    4.2312349782
O        2.4463606446   -2.1623385220    4.7902618717
O        1.0071228433   -0.4880721497    4.9361936299
H        0.5258446077    0.1308077647    4.3713537733
H        3.6984624586   -2.2865952223    2.5789397079
H        3.8049752410   -2.0954975045    0.1129562623
