15   

H        2.1271730470   -1.0610751588   -1.2209014089
C        1.9701896053   -1.0475287509   -0.1458266649
C        3.0517428621   -1.2090816595    0.7250384935
C        2.8496089340   -1.1921315220    2.1114825651
C        1.5750277870   -1.0076546219    2.6408534493
C        0.4892325662   -0.8565612699    1.7591072390
C        0.6850929716   -0.8725802733    0.3736033757
H       -0.1620505933   -0.7512103771   -0.2955391380
H       -0.5139330049   -0.7261666334    2.1592566109
C        1.3363210858   -1.0078906867    4.1002309048
O        0.2532050539   -1.1124340541    4.6203452440
O        2.4619738181   -0.8943854720    4.8444933819
H        2.1477988518   -0.9106651594    5.7603514254
H        3.7101017039   -1.3264424684    2.7620969317
H        4.0522053976   -1.3500596739    0.3259772450
15   

H        2.1246498659   -1.0335569683   -1.2187924087
C        1.9683910860   -1.0309812523   -0.1435314153
C        3.0460756326   -1.2339518567    0.7240823015
C        2.8439259868   -1.2315912278    2.1105048385
C        1.5758537613   -1.0141836917    2.6412106212
C        0.4920515943   -0.8312660628    1.7648206808
C        0.6874151388   -0.8324159713    0.3789798843
H       -0.1568485031   -0.6835747850   -0.2882393115
H       -0.5072636084   -0.6894661573    2.1703974578
C        1.3412581693   -1.0533494998    4.1018494937
O        0.3073782575   -1.3862224383    4.6242210238
O        2.4261774900   -0.7149078129    4.8376133547
H        2.1290270819   -0.7915559731    5.7560141192
H        3.6941598667   -1.4007068763    2.7666499500
H        4.0421699100   -1.3970804654    0.3225635045
15   

H        2.1177453539   -1.0080953741   -1.2164917818
C        1.9639258279   -1.0165755621   -0.1409094759
C        3.0381743955   -1.2615939734    0.7207679118
C        2.8382729610   -1.2736887314    2.1073345668
C        1.5785464729   -1.0245832249    2.6418253198
C        0.4961200050   -0.8062762030    1.7737745366
C        0.6889194550   -0.7925996793    0.3874306222
H       -0.1526104315   -0.6144350427   -0.2760276876
H       -0.4980999026   -0.6504517570    2.1861056630
C        1.3535898644   -1.0994205047    4.1052576715
O        0.4186272776   -1.6454773707    4.6319184925
O        2.3541387676   -0.5472938407    4.8298452354
H        2.0880904406   -0.6790150428    5.7514243363
H        3.6787885494   -1.4750773264    2.7669380612
H        4.0284920458   -1.4467003447    0.3145362920
15   

H        2.1067609945   -0.9837242164   -1.2155332958
C        1.9581517135   -1.0062207393   -0.1394208106
C        3.0296496288   -1.2973250615    0.7117955078
C        2.8360243652   -1.3272288295    2.0988935466
C        1.5870257975   -1.0499551465    2.6422064415
C        0.5058421856   -0.7862423265    1.7866922996
C        0.6923848840   -0.7543515403    0.3996201342
H       -0.1466318334   -0.5407510121   -0.2565027730
H       -0.4808919796   -0.6098407123    2.2079199810
C        1.3771931461   -1.1498765936    4.1105319093
O        0.5893773061   -1.8830917488    4.6473898020
O        2.2370629592   -0.3838146499    4.8190321143
H        2.0115221803   -0.5556676187    5.7446685600
H        3.6699132669   -1.5622555351    2.7556344494
H        4.0120835723   -1.5040852578    0.2969636603
15   

H        2.0896333844   -0.9507914110   -1.2157596801
C        1.9514579088   -0.9933130804   -0.1388612108
C        3.0217382599   -1.3390449241    0.6934664741
C        2.8415350846   -1.3943120820    2.0815637010
C        1.6068433651   -1.0943036303    2.6431602318
C        0.5275841431   -0.7671076090    1.8080131059
C        0.7008689689   -0.7096717328    0.4199559154
H       -0.1361615038   -0.4497470705   -0.2218167929
H       -0.4463805976   -0.5603691133    2.2442921477
C        1.4183744819   -1.2028470139    4.1181755102
O        0.8236908824   -2.0837035743    4.6786892923
O        2.0538829673   -0.2230835410    4.7977141472
H        1.8715625112   -0.4127541500    5.7292517111
H        3.6732239386   -1.6688430766    2.7254206399
H        3.9926316398   -1.5674540663    0.2631019429
15   

H        2.0780868498   -0.9098247442   -1.2148585987
C        1.9525835064   -0.9734706367   -0.1374505002
C        3.0178275724   -1.3854871478    0.6707002842
C        2.8537545594   -1.4680159714    2.0594546257
C        1.6377601395   -1.1415041076    2.6452017903
C        0.5679591264   -0.7298469392    1.8353318100
C        0.7247766643   -0.6452632811    0.4467129320
H       -0.1065119108   -0.3263710566   -0.1756232343
H       -0.3858865700   -0.4777537818    2.2914383459
C        1.4730089987   -1.2405544486    4.1258747246
O        1.1012532053   -2.2147593928    4.7218263265
O        1.7928669222   -0.0917312463    4.7602210083
H        1.6470277938   -0.2803551322    5.6983165633
H        3.6824125396   -1.7907054542    2.6845548227
H        3.9726394236   -1.6427916354    0.2210765746
15   

H        2.0619298264   -0.8790483082   -1.2142882068
C        1.9514688183   -0.9557129001   -0.1360816904
C        3.0114371501   -1.4250705389    0.6471003838
C        2.8664447572   -1.5247666222    2.0368281587
C        1.6710777304   -1.1693990617    2.6487218174
C        0.6126025136   -0.6836213725    1.8642058060
C        0.7500734666   -0.5820548397    0.4747118021
H       -0.0749029174   -0.2118173851   -0.1272480538
H       -0.3175963312   -0.3865702341    2.3416231008
C        1.5383119488   -1.2544280516    4.1318157707
O        1.4097146879   -2.2666544531    4.7662480239
O        1.5122984586   -0.0369473763    4.7172102370
H        1.4076208312   -0.2213792401    5.6616663094
H        3.6920747150   -1.8895835383    2.6426973084
H        3.9478262827   -1.7126182051    0.1774791780
15   

H        2.0487278181   -0.8846202513   -1.2172486865
C        1.9501730432   -0.9588589377   -0.1377202703
C        3.0022848473   -1.4686807841    0.6303329448
C        2.8726607065   -1.5653425127    2.0217252364
C        1.6979208442   -1.1710126480    2.6518016138
C        0.6503151149   -0.6382453383    1.8810810025
C        0.7728982900   -0.5398078403    0.4900048647
H       -0.0447280187   -0.1354381084   -0.0998975338
H       -0.2602933201   -0.3018339418    2.3702935119
C        1.5964290045   -1.2427548451    4.1339544843
O        1.7085418184   -2.2410864406    4.7950790157
O        1.2701392187   -0.0543676417    4.6902010368
H        1.2143575183   -0.2363846038    5.6393816387
H        3.6927049005   -1.9612311940    2.6159925523
H        3.9210355157   -1.7898438768    0.1478195278
15   

H        2.0333477760   -0.9131398528   -1.2227799294
C        1.9445720505   -0.9746810647   -0.1416052970
C        2.9880040124   -1.5117231209    0.6193108794
C        2.8713850995   -1.5919213787    2.0127836059
C        1.7174240984   -1.1528007744    2.6543384806
C        0.6776821976   -0.5944723106    1.8881688325
C        0.7885126319   -0.5127330453    0.4950171860
H       -0.0224202541   -0.0880500474   -0.0898369335
H       -0.2191302944   -0.2253056590    2.3794638395
C        1.6441545613   -1.2154775829    4.1344176728
O        1.9849076384   -2.1537229375    4.8074671940
O        1.0718717484   -0.1194500540    4.6837189295
H        1.0709327692   -0.2970541885    5.6354852414
H        3.6854929088   -2.0098010673    2.6006344964
H        3.8902877144   -1.8671372442    0.1297714707
15   

H        2.0177213138   -0.9530386589   -1.2296520761
C        1.9381290222   -0.9963333604   -0.1468787532
C        2.9725888326   -1.5530640074    0.6115626616
C        2.8683765349   -1.6096800419    2.0070876944
C        1.7361895746   -1.1234446828    2.6558132027
C        0.7023968002   -0.5507023376    1.8890972871
C        0.8022458024   -0.4928426247    0.4939287305
H       -0.0027085707   -0.0551400053   -0.0896010490
H       -0.1835735847   -0.1515397891    2.3766153911
C        1.6838699788   -1.1792633719    4.1339537702
O        2.2303402313   -2.0124054923    4.8120087637
O        0.9059701600   -0.2185100748    4.6851730670
H        0.9569415940   -0.3829528210    5.6380315568
H        3.6777040297   -2.0441234061    2.5899184137
H        3.8587784662   -1.9425878814    0.1185776976
15   

H        1.9967622548   -0.9985489884   -1.2355066878
C        1.9271954882   -1.0218995531   -0.1514283006
C        2.9532645974   -1.5945606709    0.6058808548
C        2.8626774277   -1.6251127168    2.0031200482
C        1.7537231703   -1.0925346466    2.6572694761
C        0.7245633999   -0.5100199043    1.8889142408
C        0.8119450940   -0.4783035668    0.4920856312
H        0.0122837408   -0.0302808693   -0.0909041331
H       -0.1498630534   -0.0810761456    2.3718313389
C        1.7167859944   -1.1395533839    4.1348693982
O        2.4373567390   -1.8226228019    4.8195694351
O        0.7649297134   -0.3497088880    4.6851517786
H        0.8588266724   -0.4875783280    5.6390246040
H        3.6683853061   -2.0734524570    2.5805920085
H        3.8229864554   -2.0170558584    0.1107122766
15   

H        1.9716836756   -1.0475021085   -1.2388640010
C        1.9132132651   -1.0499016617   -0.1538816241
C        2.9316319274   -1.6363232559    0.6029275411
C        2.8559176633   -1.6392787990    2.0013721641
C        1.7711758701   -1.0614683951    2.6583320889
C        0.7462427917   -0.4710202533    1.8892632638
C        0.8193501653   -0.4666600811    0.4912754712
H        0.0247345689   -0.0093777024   -0.0914311663
H       -0.1134980522   -0.0118417505    2.3706635438
C        1.7452535820   -1.0947464362    4.1362315885
O        2.6010901807   -1.5895811598    4.8276185173
O        0.6531705742   -0.5093031844    4.6816360759
H        0.7779857136   -0.6089902889    5.6367401858
H        3.6566943462   -2.0997823405    2.5761517980
H        3.7841533285   -2.0910887347    0.1064277861
15   

H        1.9428083550   -1.0963255891   -1.2386207451
C        1.8962409051   -1.0779956859   -0.1532147283
C        2.9074102408   -1.6776606733    0.6032335734
C        2.8472829559   -1.6530115717    2.0022310415
C        1.7877701653   -1.0308317694    2.6592356365
C        0.7669196102   -0.4332572359    1.8913605441
C        0.8243411071   -0.4558359960    0.4928024773
H        0.0346414878    0.0102413236   -0.0896115738
H       -0.0752428153    0.0541585872    2.3761404405
C        1.7680236527   -1.0466950957    4.1378279895
O        2.7114770644   -1.3258307833    4.8353945750
O        0.5776520880   -0.6891141926    4.6743416089
H        0.7186139058   -0.7416867028    5.6309313271
H        3.6406252925   -2.1237622079    2.5789886526
H        3.7419411326   -2.1639322575    0.1060330570
15   

H        1.9153640881   -1.1385416120   -1.2355604900
C        1.8803414292   -1.1010624454   -0.1502143878
C        2.8824904468   -1.7163504132    0.6063617960
C        2.8371716160   -1.6662333475    2.0052864486
C        1.8045831785   -0.9994947031    2.6597614547
C        0.7894776267   -0.3928852029    1.8941242992
C        0.8314074136   -0.4399928200    0.4956123578
H        0.0476223203    0.0360752580   -0.0866953319
H       -0.0337933016    0.1199082292    2.3852617934
C        1.7840533419   -0.9976994261    4.1397371598
O        2.7616547916   -1.0494982360    4.8426783265
O        0.5419985756   -0.8781398237    4.6641637144
H        0.6825483616   -0.8802391673    5.6221930211
H        3.6205537090   -2.1476979739    2.5866193855
H        3.6978776663   -2.2341902554    0.1092897002
15   

H        1.8897882571   -1.1733111757   -1.2310666808
C        1.8653333113   -1.1182840646   -0.1461791248
C        2.8555593846   -1.7517522880    0.6116652594
C        2.8236111673   -1.6785019759    2.0100256110
C        1.8194261163   -0.9679417384    2.6602269800
C        0.8133162565   -0.3486609982    1.8959991005
C        0.8408645229   -0.4178535524    0.4980399831
H        0.0649311305    0.0702599738   -0.0847933490
H        0.0095154623    0.1890714267    2.3926635444
C        1.7934632355   -0.9448832003    4.1430370010
O        2.7502839752   -0.7666230362    4.8516483970
O        0.5468174124   -1.0710113420    4.6534111108
H        0.6708248707   -1.0221741388    5.6123898906
H        3.5954068020   -2.1730650098    2.5954336101
H        3.6506066560   -2.3015118038    0.1159352678
15   

H        1.8737384191   -1.2017563189   -1.2273500597
C        1.8548433655   -1.1316267346   -0.1432232936
C        2.8264982430   -1.7872615000    0.6201855998
C        2.8015836751   -1.6941567534    2.0176222523
C        1.8244835839   -0.9416422295    2.6591073548
C        0.8359082687   -0.3018934900    1.8917941971
C        0.8555563562   -0.3900064299    0.4947761418
H        0.0933591360    0.1148180578   -0.0919266265
H        0.0524914780    0.2650288064    2.3883487984
C        1.7910699962   -0.8900048866    4.1451899715
O        2.6770102737   -0.4859195492    4.8509845332
O        0.5974143158   -1.2735544239    4.6513670897
H        0.6959589232   -1.1758833113    5.6094562845
H        3.5577841032   -2.2057501806    2.6082042098
H        3.6011891421   -2.3695057831    0.1293563742
15   

H        1.8759930986   -1.2160242116   -1.2250214276
C        1.8528316393   -1.1344748749   -0.1417755481
C        2.7940651634   -1.8190168366    0.6345525805
C        2.7635605273   -1.7112254378    2.0308891714
C        1.8088804705   -0.9196584023    2.6566764989
C        0.8545991528   -0.2450490362    1.8781750350
C        0.8795031340   -0.3474888276    0.4821830998
H        0.1425621280    0.1822961127   -0.1146949012
H        0.0943198862    0.3599492329    2.3654009330
C        1.7699864762   -0.8345619914    4.1451889787
O        2.5399579867   -0.2183024690    4.8314923067
O        0.7111675348   -1.4888448592    4.6709636225
H        0.7857916889   -1.3483255304    5.6257700683
H        3.4961627138   -2.2446375359    2.6313883031
H        3.5494037229   -2.4346844106    0.1544802483
15   

H        1.9106466061   -1.2132795346   -1.2245241006
C        1.8684755107   -1.1259016471   -0.1423056355
C        2.7633789388   -1.8466281644    0.6560121859
C        2.7082077333   -1.7317931572    2.0510529156
C        1.7676188039   -0.9061614372    2.6526979286
C        0.8706340042   -0.1813076946    1.8528038333
C        0.9201932113   -0.2911092677    0.4579934427
H        0.2238369525    0.2723222099   -0.1565536913
H        0.1363161181    0.4686379656    2.3215827043
C        1.7235761227   -0.7864501195    4.1403386036
O        2.3327034541    0.0170083868    4.7929140153
O        0.9060196535   -1.6989718503    4.7090253146
H        0.9623961776   -1.5211176696    5.6587941667
H        3.4062956386   -2.2911159784    2.6686159224
H        3.5024428502   -2.4949347212    0.1939343831
15   

H        1.9514620211   -1.2012019112   -1.2237355228
C        1.8846863392   -1.1143250433   -0.1427155001
C        2.7255932584   -1.8757525194    0.6763716141
C        2.6387882206   -1.7617532588    2.0698602660
C        1.7112776663   -0.9050374246    2.6491887030
C        0.8813248304   -0.1260210341    1.8284328732
C        0.9626041196   -0.2353277781    0.4350646555
H        0.3135548720    0.3652770646   -0.1958568511
H        0.1751459838    0.5660285384    2.2801699092
C        1.6627576143   -0.7599503163    4.1322825295
O        2.0749834754    0.1840236460    4.7509227253
O        1.1553145558   -1.8515669196    4.7458418234
H        1.1932877478   -1.6419973121    5.6900963111
H        3.2972782062   -2.3501740242    2.7037193353
H        3.4482927412   -2.5539657762    0.2316800860
15   

H        1.9884326613   -1.1981722798   -1.2223636306
C        1.8991832736   -1.1130903205   -0.1428246098
C        2.6940529797   -1.9055306660    0.6924233798
C        2.5786730363   -1.7936296870    2.0840381168
C        1.6632396550   -0.9118325715    2.6466059170
C        0.8864727155   -0.0964223824    1.8086642806
C        0.9963932746   -0.2033946678    0.4171691118
H        0.3858298394    0.4242340063   -0.2257663791
H        0.1995307129    0.6232955711    2.2471974604
C        1.5962129775   -0.7529458054    4.1231748595
O        1.7812220763    0.2768979128    4.7161909590
O        1.3883499281   -1.9219453632    4.7700384775
H        1.3883599620   -1.6850308613    5.7086951947
H        3.2045959010   -2.4055551826    2.7287742059
H        3.4041912801   -2.6057748514    0.2618733062
15   

H        2.0149211811   -1.1944450452   -1.2224271526
C        1.9110575823   -1.1123897064   -0.1439611440
C        2.6681553401   -1.9321837421    0.6994086986
C        2.5343863698   -1.8244260447    2.0897928548
C        1.6372779206   -0.9181442789    2.6452156359
C        0.8985684476   -0.0769154855    1.7970060303
C        1.0272049326   -0.1795220892    0.4069583062
H        0.4454532215    0.4694411571   -0.2415043103
H        0.2252664423    0.6605116656    2.2278622077
C        1.5411089085   -0.7595789055    4.1160822823
O        1.4896697931    0.2955813614    4.6937461185
O        1.5887203254   -1.9344694679    4.7856600907
H        1.5333017265   -1.6844648066    5.7193980987
H        3.1353325314   -2.4599886647    2.7355671647
H        3.3639638877   -2.6510318007    0.2761765233
15   

H        2.0401900000   -1.1866240291   -1.2236677504
C        1.9256876813   -1.1083729506   -0.1459963579
C        2.6489146547   -1.9537308517    0.7011561704
C        2.5017305012   -1.8517560583    2.0907516065
C        1.6270662862   -0.9213713044    2.6441669162
C        0.9177629920   -0.0597453444    1.7893951169
C        1.0602872040   -0.1566561715    0.4005041612
H        0.5019661255    0.5104017879   -0.2502089159
H        0.2537796308    0.6897797350    2.2143290712
C        1.4956755607   -0.7734985858    4.1107632085
O        1.2113619973    0.2520745689    4.6764041840
O        1.7686385244   -1.9065735005    4.7996562636
H        1.6501558822   -1.6594206690    5.7283707572
H        3.0806738880   -2.5125344225    2.7312363211
H        3.3291000401   -2.6893842291    0.2814014205
15   

H        2.0648543503   -1.1740149128   -1.2244986715
C        1.9406965466   -1.1009785762   -0.1475290595
C        2.6308886124   -1.9717997495    0.7007446724
C        2.4713793375   -1.8776009104    2.0896492677
C        1.6211153547   -0.9241296484    2.6435138879
C        0.9377947679   -0.0436270191    1.7850006948
C        1.0931443167   -0.1330639221    0.3971583313
H        0.5565606637    0.5511371262   -0.2540570583
H        0.2815442755    0.7154853331    2.2051758622
C        1.4546566499   -0.7934309211    4.1070616868
O        0.9511186087    0.1524007142    4.6606327138
O        1.9392712278   -1.8416860524    4.8143198173
H        1.7607420495   -1.6121339478    5.7380081081
H        3.0265239999   -2.5652977402    2.7226372342
H        3.2946140459   -2.7230498313    0.2822451732
15   

H        2.0869133915   -1.1573567978   -1.2238971892
C        1.9531978375   -1.0915837418   -0.1476030349
C        2.6109762808   -1.9883131100    0.6991181649
C        2.4389648236   -1.9040534453    2.0872114912
C        1.6135344168   -0.9298471498    2.6431869150
C        0.9544077593   -0.0303193472    1.7846256638
C        1.1225171843   -0.1098426525    0.3977283221
H        0.6071071191    0.5915444078   -0.2523109597
H        0.3061436788    0.7364525495    2.2033544814
C        1.4158270656   -0.8205743991    4.1043664813
O        0.7150869652    0.0001981621    4.6434598662
O        2.0995468333   -1.7382239469    4.8286323116
H        1.8698878683   -1.5386220760    5.7479960409
H        2.9660070516   -2.6178585330    2.7151962415
H        3.2580458912   -2.7535749699    0.2799109559
