15   

H        2.1271730198   -1.0610756258   -1.2209014120
C        1.9701895851   -1.0475291366   -0.1458266684
C        3.0517428634   -1.2090818381    0.7250384976
C        2.8496089340   -1.1921315220    2.1114825651
C        1.5750277870   -1.0076546219    2.6408534493
C        0.4892325442   -0.8565615008    1.7591072264
C        0.6850929442   -0.8725806852    0.3736033632
H       -0.1620506279   -0.7512108982   -0.2955391584
H       -0.5139330286   -0.7261668278    2.1592565850
C        1.3363210858   -1.0078906867    4.1002309048
O        0.2532050539   -1.1124340541    4.6203452440
O        2.4619734658   -0.8943815002    4.8444932913
H        2.1478007471   -0.9106856542    5.7603516739
H        3.7101016932   -1.3264421466    2.7620970074
H        4.0522054129   -1.3500597529    0.3259772496
15   

H        2.1246496402   -1.0335580459   -1.2187924249
C        1.9683909276   -1.0309821053   -0.1435314230
C        3.0460755578   -1.2339523041    0.7240822907
C        2.8439259868   -1.2315912278    2.1105048385
C        1.5758537613   -1.0141836917    2.6412106212
C        0.4920515334   -0.8312664039    1.7648206982
C        0.6874149980   -0.8324167363    0.3789798935
H       -0.1568486898   -0.6835756969   -0.2882392803
H       -0.5072636158   -0.6894662890    2.1703975517
C        1.3412581693   -1.0533494998    4.1018494937
O        0.3073782575   -1.3862224383    4.6242210238
O        2.4261759162   -0.7149028614    4.8376133094
H        2.1290456287   -0.7916183607    5.7560149715
H        3.6941599579   -1.4007061322    2.7666499851
H        4.0421698460   -1.3970807622    0.3225634571
15   

H        2.1177448950   -1.0080961411   -1.2164917980
C        1.9639255107   -1.0165761936   -0.1409094686
C        3.0381742049   -1.2615943268    0.7207678634
C        2.8382729610   -1.2736887314    2.1073345668
C        1.5785464729   -1.0245832249    2.6418253198
C        0.4961199490   -0.8062762081    1.7737746549
C        0.6889192209   -0.7926000655    0.3874307200
H       -0.1526107327   -0.6144353273   -0.2760274778
H       -0.4980997845   -0.6504512217    2.1861060444
C        1.3535898644   -1.0994205047    4.1052576715
O        0.4186272776   -1.6454773707    4.6319184925
O        2.3541363012   -0.5472898706    4.8298454179
H        2.0881480419   -0.6791234162    5.7514258178
H        3.6787888737   -1.4750765879    2.7669377728
H        4.0284918211   -1.4467004915    0.3145360695
15   

H        2.1067605612   -0.9837238922   -1.2155332411
C        1.9581514310   -1.0062205393   -0.1394207370
C        3.0296494116   -1.2973250494    0.7117954568
C        2.8360243652   -1.3272288295    2.0988935466
C        1.5870257975   -1.0499551465    2.6422064415
C        0.5058422176   -0.7862417598    1.7866925254
C        0.6923847396   -0.7543509750    0.3996203522
H       -0.1466319984   -0.5407499296   -0.2565023610
H       -0.4808916539   -0.6098394027    2.2079206549
C        1.3771931461   -1.1498765936    4.1105319093
O        0.5893773061   -1.8830917488    4.6473898020
O        2.2370599732   -0.3838118004    4.8190324157
H        2.0116236338   -0.5557864298    5.7446717410
H        3.6699136729   -1.5622553996    2.7556338402
H        4.0120832484   -1.5040851858    0.2969633307
15   

H        2.0896331174   -0.9507904599   -1.2157595612
C        1.9514577609   -0.9933123696   -0.1388610839
C        3.0217381133   -1.3390446534    0.6934664443
C        2.8415350846   -1.3943120820    2.0815637010
C        1.6068433651   -1.0943036303    2.6431602318
C        0.5275842484   -0.7671068246    1.8080133734
C        0.7008689581   -0.7096706993    0.4199561923
H       -0.1361614929   -0.4497454485   -0.2218163055
H       -0.4463801901   -0.5603677446    2.2442928901
C        1.4183744819   -1.2028470139    4.1181755102
O        0.8236908824   -2.0837035743    4.6786892923
O        2.0538799141   -0.2230816940    4.7977142146
H        1.8716589042   -0.4128213091    5.7292572010
H        3.6732241493   -1.6688434687    2.7254201004
H        3.9926313574   -1.5674538831    0.2631016505
15   

H        2.0780869185   -0.9098247309   -1.2148586027
C        1.9525835577   -0.9734706077   -0.1374505045
C        3.0178275905   -1.3854871690    0.6707002886
C        2.8537545594   -1.4680159714    2.0594546257
C        1.6377601395   -1.1415041076    2.6452017903
C        0.5679591664   -0.7298468548    1.8353318012
C        0.7247767324   -0.6452631827    0.4467129233
H       -0.1065118106   -0.3263708981   -0.1756232512
H       -0.3858865155   -0.4777536349    2.2914383330
C        1.4730089987   -1.2405544486    4.1258747246
O        1.1012532053   -2.2147593928    4.7218263265
O        1.7928661104   -0.0917309806    4.7602209358
H        1.6470277839   -0.2803551307    5.6983165628
H        3.6824125305   -1.7907054833    2.6845548189
H        3.9726394307   -1.6427917154    0.2210765900
15   

H        2.0619300158   -0.8790493427   -1.2142883997
C        1.9514688861   -0.9557137215   -0.1360818812
C        3.0114372394   -1.4250709255    0.6471003818
C        2.8664447572   -1.5247666222    2.0368281587
C        1.6710777304   -1.1693990617    2.6487218174
C        0.6126023893   -0.6836219698    1.8642054779
C        0.7500734227   -0.5820557958    0.4747114438
H       -0.0749029507   -0.2118187144   -0.1272486580
H       -0.3175967602   -0.3865709803    2.3416221455
C        1.5383119488   -1.2544280516    4.1318157707
O        1.4097146879   -2.2666544531    4.7662480239
O        1.5123008163   -0.0369476075    4.7172106830
H        1.4075083179   -0.2213766105    5.6616545894
H        3.6920747447   -1.8895829046    2.6426977020
H        3.9478265372   -1.7126184533    0.1774794194
15   

H        2.0487281671   -0.8846211549   -1.2172488971
C        1.9501732260   -0.9588596470   -0.1377204827
C        3.0022849678   -1.4686812121    0.6303329433
C        2.8726607065   -1.5653425127    2.0217252364
C        1.6979208442   -1.1710126480    2.6518016138
C        0.6503151976   -0.6382454517    1.8810806609
C        0.7728984784   -0.5398083559    0.4900044889
H       -0.0447276533   -0.1354386548   -0.0998981770
H       -0.2602933721   -0.3018335830    2.3702924183
C        1.5964290045   -1.2427548451    4.1339544843
O        1.7085418184   -2.2410864406    4.7950790157
O        1.2701425990   -0.0543671994    4.6902017697
H        1.2142101001   -0.2364193712    5.6393667763
H        3.6927049664   -1.9612305265    2.6159929563
H        3.9210358113   -1.7898442196    0.1478197962
15   

H        2.0333481814   -0.9131399869   -1.2227800138
C        1.9445723014   -0.9746811810   -0.1416053936
C        2.9880041227   -1.5117233024    0.6193108907
C        2.8713850995   -1.5919213787    2.0127836059
C        1.7174240984   -1.1528007744    2.6543384806
C        0.6776825236   -0.5944717977    1.8881686809
C        0.7885130299   -0.5127327309    0.4950170170
H       -0.0224195471   -0.0880493255   -0.0898372356
H       -0.2191297310   -0.2253041888    2.3794632632
C        1.6441545613   -1.2154775829    4.1344176728
O        1.9849076384   -2.1537229375    4.8074671940
O        1.0718749102   -0.1194488327    4.6837195237
H        1.0708138901   -0.2971121134    5.6354746985
H        3.6854929485   -2.0098006947    2.6006347371
H        3.8902879262   -1.8671374100    0.1297716567
15   

H        2.0177214969   -0.9530386614   -1.2296521030
C        1.9381291377   -0.9963333587   -0.1468787839
C        2.9725888474   -1.5530641230    0.6115626642
C        2.8683765349   -1.6096800419    2.0070876944
C        1.7361895746   -1.1234446828    2.6558132027
C        0.7023970892   -0.5507018243    1.8890972607
C        0.8022460955   -0.4928422240    0.4939286917
H       -0.0027080185   -0.0551391857   -0.0896011326
H       -0.1835729522   -0.1515384487    2.3766152414
C        1.6838699788   -1.1792633719    4.1339537702
O        2.2303402313   -2.0124054923    4.8120087637
O        0.9059726039   -0.2185083567    4.6851733905
H        0.9568722091   -0.3830065266    5.6380261683
H        3.6777040744   -2.0441232036    2.5899185155
H        3.8587785001   -1.9425880385    0.1185777660
15   

H        1.9967623073   -0.9985489606   -1.2355066788
C        1.9271955209   -1.0218995208   -0.1514282934
C        2.9532645808   -1.5945607226    0.6058808585
C        2.8626774277   -1.6251127168    2.0031200482
C        1.7537231703   -1.0925346466    2.6572694761
C        0.7245635600   -0.5100196075    1.8889142606
C        0.8119452401   -0.4783033106    0.4920856473
H        0.0122840238   -0.0302803685   -0.0909041147
H       -0.1498626585   -0.0810754013    2.3718313681
C        1.7167859944   -1.1395533839    4.1348693982
O        2.4373567390   -1.8226228019    4.8195694351
O        0.7649311464   -0.3497072692    4.6851519014
H        0.8588009448   -0.4876082761    5.6390228419
H        3.6683853314   -2.0734523830    2.5805920335
H        3.8229864295   -2.0170559421    0.1107122944
15   

H        1.9716838303   -1.0475018062   -1.2388639913
C        1.9132133754   -1.0499014557   -0.1538816146
C        2.9316319800   -1.6363231534    0.6029275434
C        2.8559176633   -1.6392787990    2.0013721641
C        1.7711758701   -1.0614683951    2.6583320889
C        0.7462428459   -0.4710201509    1.8892632696
C        0.8193502745   -0.4666598767    0.4912754783
H        0.0247347315   -0.0093774081   -0.0914311582
H       -0.1134979851   -0.0118416269    2.3706635473
C        1.7452535820   -1.0947464362    4.1362315885
O        2.6010901807   -1.5895811598    4.8276185173
O        0.6531705544   -0.5093032197    4.6816360763
H        0.7779856579   -0.6089903848    5.6367401835
H        3.6566943120   -2.0997824026    2.5761517961
H        3.7841533886   -2.0910886250    0.1064277918
15   

H        1.9428083387   -1.0963257976   -1.2386207587
C        1.8962408871   -1.0779958246   -0.1532147416
C        2.9074102668   -1.6776606993    0.6032335788
C        2.8472829559   -1.6530115717    2.0022310415
C        1.7877701653   -1.0308317694    2.6592356365
C        0.7669194444   -0.4332575526    1.8913605211
C        0.8243409699   -0.4558363181    0.4928024466
H        0.0346412274    0.0102407434   -0.0896116437
H       -0.0752432283    0.0541578545    2.3761403906
C        1.7680236527   -1.0466950957    4.1378279895
O        2.7114770644   -1.3258307833    4.8353945750
O        0.5776514829   -0.6891162672    4.6743416097
H        0.7186255464   -0.7416489411    5.6309317151
H        3.6406252473   -2.1237622538    2.5789886802
H        3.7419411640   -2.1639323010    0.1060330895
15   

H        1.9153640909   -1.1385418506   -1.2355605021
C        1.8803414247   -1.1010626030   -0.1502144050
C        2.8824905232   -1.7163503896    0.6063618049
C        2.8371716160   -1.6662333475    2.0052864486
C        1.8045831785   -0.9994947031    2.6597614547
C        0.7894773091   -0.3928857717    1.8941242578
C        0.8314071581   -0.4399933577    0.4956123146
H        0.0476218104    0.0360742371   -0.0866954286
H       -0.0337941415    0.1199069042    2.3852615945
C        1.7840533419   -0.9976994261    4.1397371598
O        2.7616547916   -1.0494982360    4.8426783265
O        0.5419984237   -0.8781428442    4.6641639002
H        0.6825569137   -0.8801517107    5.6221921404
H        3.6205535779   -2.1476981020    2.5866194690
H        3.6978777817   -2.2341902271    0.1092897675
15   

H        1.8897886322   -1.1733115374   -1.2310667868
C        1.8653335824   -1.1182842699   -0.1461792404
C        2.8555596229   -1.7517523166    0.6116652817
C        2.8236111673   -1.6785019759    2.0100256110
C        1.8194261163   -0.9679417384    2.6602269800
C        0.8133160261   -0.3486615361    1.8959988831
C        0.8408645138   -0.4178540890    0.4980397544
H        0.0649309481    0.0702589359   -0.0847937643
H        0.0095145657    0.1890702302    2.3926628202
C        1.7934632355   -0.9448832003    4.1430370010
O        2.7502839752   -0.7666230362    4.8516483970
O        0.5468180408   -1.0710146042    4.6534115591
H        0.6708106731   -1.0220421631    5.6123853897
H        3.5954064891   -2.1730652433    2.5954338563
H        3.6506069488   -2.3015119317    0.1159354866
15   

H        1.8737393763   -1.2017560986   -1.2273502334
C        1.8548440645   -1.1316264951   -0.1432234734
C        2.8264986622   -1.7872613808    0.6201856168
C        2.8015836751   -1.6941567534    2.0176222523
C        1.8244835839   -0.9416422295    2.6591073548
C        0.8359084094   -0.3018934923    1.8917938676
C        0.8555568986   -0.3900062964    0.4947757951
H        0.0933597987    0.1148180673   -0.0919272357
H        0.0524911523    0.2650286700    2.3883477083
C        1.7910699962   -0.8900048866    4.1451899715
O        2.6770102737   -0.4859195492    4.8509845332
O        0.5974157336   -1.2735575838    4.6513677053
H        0.6959100709   -1.1757395508    5.6094471113
H        3.5577835586   -2.2057506180    2.6082045787
H        3.6011895684   -2.3695058786    0.1293566567
15   

H        1.8759941777   -1.2160237348   -1.2250215878
C        1.8528324332   -1.1344744495   -0.1417757111
C        2.7940655722   -1.8190166830    0.6345525954
C        2.7635605273   -1.7112254378    2.0308891714
C        1.8088804705   -0.9196584023    2.6566764989
C        0.8545995964   -0.2450486128    1.8781747228
C        0.8795039591   -0.3474882598    0.4821827686
H        0.1425632917    0.1822968680   -0.1146954846
H        0.0943202735    0.3599499935    2.3653999900
C        1.7699864762   -0.8345619914    4.1451889787
O        2.5399579867   -0.2183024690    4.8314923067
O        0.7111689907   -1.4888467779    4.6709640070
H        0.7857297819   -1.3482313135    5.6257612612
H        3.4961621753   -2.2446379272    2.6313886658
H        3.5494041162   -2.4346844615    0.1544805022
15   

H        1.9106465110   -1.2132796360   -1.2245240905
C        1.8684754401   -1.1259017265   -0.1423056282
C        2.7633789116   -1.8466281982    0.6560121875
C        2.7082077333   -1.7317931572    2.0510529156
C        1.7676188039   -0.9061614372    2.6526979286
C        0.8706339410   -0.1813077713    1.8528038395
C        0.9201931160   -0.2911093751    0.4579934513
H        0.2238368088    0.2723220535   -0.1565536729
H        0.1363160399    0.4686378593    2.3215827245
C        1.7235761227   -0.7864501195    4.1403386036
O        2.3327034541    0.0170083868    4.7929140153
O        0.9060189850   -1.6989712890    4.7090252487
H        0.9623961812   -1.5211176580    5.6587941631
H        3.4062956803   -2.2911159366    2.6686159125
H        3.5024428337   -2.4949347400    0.1939343794
15   

H        1.9514608668   -1.2012024218   -1.2237354360
C        1.8846855161   -1.1143254568   -0.1427154006
C        2.7255928856   -1.8757526087    0.6763715804
C        2.6387882206   -1.7617532588    2.0698602660
C        1.7112776663   -0.9050374246    2.6491887030
C        0.8813241565   -0.1260216196    1.8284330985
C        0.9626030996   -0.2353284826    0.4350648855
H        0.3135532901    0.3652759450   -0.1958564366
H        0.1751449572    0.5660273580    2.2801705621
C        1.6627576143   -0.7599503163    4.1322825295
O        2.0749834754    0.1840236460    4.7509227253
O        1.1553114086   -1.8515653432    4.7458418809
H        1.1933958878   -1.6420433640    5.6901024703
H        3.2972787102   -2.3501739192    2.7037188074
H        3.4482923839   -2.5539656853    0.2316798048
15   

H        1.9884324535   -1.1981717366   -1.2223635739
C        1.8991831683   -1.1130899495   -0.1428245306
C        2.6940529490   -1.9055303750    0.6924233305
C        2.5786730363   -1.7936296870    2.0840381168
C        1.6632396550   -0.9118325715    2.6466059170
C        0.8864723720   -0.0964225921    1.8086644929
C        0.9963929467   -0.2033946019    0.4171693233
H        0.3858291702    0.4242339167   -0.2257659893
H        0.1995299191    0.6232947209    2.2471980881
C        1.5962129775   -0.7529458054    4.1231748595
O        1.7812220763    0.2768979128    4.7161909590
O        1.3883458609   -1.9219443598    4.7700387226
H        1.3885143388   -1.6850535543    5.7087014409
H        3.2045959508   -2.4055556459    2.7287735728
H        3.4041911406   -2.6057744932    0.2618729653
15   

H        2.0149215684   -1.1944442973   -1.2224271124
C        1.9110579300   -1.1123891427   -0.1439610927
C        2.6681555291   -1.9321834117    0.6994086778
C        2.5343863698   -1.8244260447    2.0897928548
C        1.6372779206   -0.9181442789    2.6452156359
C        0.8985684148   -0.0769154517    1.7970061429
C        1.0272051187   -0.1795217216    0.4069584239
H        0.4454532809    0.4694415063   -0.2415040990
H        0.2252660304    0.6605112456    2.2278625451
C        1.5411089085   -0.7595789055    4.1160822823
O        1.4896697931    0.2955813614    4.6937461185
O        1.5887157162   -1.9344695024    4.7856601462
H        1.5334241873   -1.6844559153    5.7194033247
H        3.1353321045   -2.4599893024    2.7355668315
H        3.3639638971   -2.6510315434    0.2761763293
15   

H        2.0401906637   -1.1866233294   -1.2236677119
C        1.9256882273   -1.1083724109   -0.1459963205
C        2.6489149417   -1.9537305714    0.7011561763
C        2.5017305012   -1.8517560583    2.0907516065
C        1.6270662862   -0.9213713044    2.6441669162
C        0.9177631915   -0.0597451583    1.7893951599
C        1.0602876799   -0.1566557051    0.4005042170
H        0.5019666622    0.5104023448   -0.2502088189
H        0.2537796477    0.6897797243    2.2143291888
C        1.4956755607   -0.7734985858    4.1107632085
O        1.2113619973    0.2520745689    4.6764041840
O        1.7686335073   -1.9065748027    4.7996560224
H        1.6502185571   -1.6594031957    5.7283741656
H        3.0806733212   -2.5125348835    2.7312363185
H        3.3291001848   -2.6893840424    0.2814013600
15   

H        2.0648549622   -1.1740143988   -1.2244986322
C        1.9406970095   -1.1009781942   -0.1475290284
C        2.6308888396   -1.9717995724    0.7007446884
C        2.4713793375   -1.8776009104    2.0896492677
C        1.6211153547   -0.9241296484    2.6435138879
C        0.9377949914   -0.0436268344    1.7850007112
C        1.0931447649   -0.1330635487    0.3971583607
H        0.5565612393    0.5511376189   -0.2540570065
H        0.2815444493    0.7154854752    2.2051758806
C        1.4546566499   -0.7934309211    4.1070616868
O        0.9511186087    0.1524007142    4.6606327138
O        1.9392676875   -1.8416878559    4.8143195482
H        1.7607603799   -1.6121246372    5.7380093046
H        3.0265236733   -2.5652979454    2.7226372925
H        3.2946142090   -2.7230497101    0.2822451860
15   

H        2.0869133955   -1.1573567797   -1.2238971919
C        1.9531978430   -1.0915837283   -0.1476030355
C        2.6109762926   -1.9883130934    0.6991181644
C        2.4389648236   -1.9040534453    2.0872114912
C        1.6135344168   -0.9298471498    2.6431869150
C        0.9544077574   -0.0303193455    1.7846256681
C        1.1225171775   -0.1098426464    0.3977283248
H        0.6071071090    0.5915444150   -0.2523109549
H        0.3061436879    0.7364525501    2.2033545067
C        1.4158270656   -0.8205743991    4.1043664813
O        0.7150869652    0.0001981621    4.6434598662
O        2.0995468540   -1.7382239304    4.8286323144
H        1.8698879061   -1.5386220479    5.7479960472
H        2.9660070519   -2.6178585335    2.7151962407
H        3.2580459138   -2.7535749475    0.2799109624
