15   

H        2.1271729738   -1.0610756018   -1.2209014131
C        1.9701895535   -1.0475291217   -0.1458266670
C        3.0517428446   -1.2090818282    0.7250384907
C        2.8496089340   -1.1921315220    2.1114825651
C        1.5750277870   -1.0076546219    2.6408534493
C        0.4892325343   -0.8565615033    1.7591072397
C        0.6850929162   -0.8725806790    0.3736033761
H       -0.1620506665   -0.7512108874   -0.2955391343
H       -0.5139330313   -0.7261668332    2.1592566183
C        1.3363210858   -1.0078906867    4.1002309048
O        0.2532050539   -1.1124340541    4.6203452440
O        2.4619734609   -0.8943814487    4.8444932887
H        2.1478007724   -0.9106859565    5.7603516746
H        3.7101016942   -1.3264421447    2.7620970065
H        4.0522053880   -1.3500597401    0.3259772272
15   

H        2.1246495874   -1.0335581134   -1.2187924236
C        1.9683908922   -1.0309821567   -0.1435314197
C        3.0460755386   -1.2339523272    0.7240822859
C        2.8439259868   -1.2315912278    2.1105048385
C        1.5758537613   -1.0141836917    2.6412106212
C        0.4920515220   -0.8312664250    1.7648207111
C        0.6874149680   -0.8324167876    0.3789799058
H       -0.1568487326   -0.6835757751   -0.2882392572
H       -0.5072636230   -0.6894663089    2.1703975753
C        1.3412581693   -1.0533494998    4.1018494937
O        0.3073782575   -1.3862224383    4.6242210238
O        2.4261758960   -0.7149028094    4.8376133132
H        2.1290458868   -0.7916192665    5.7560149863
H        3.6941599668   -1.4007061039    2.7666499804
H        4.0421698227   -1.3970807723    0.3225634365
15   

H        2.1177449106   -1.0080961679   -1.2164917933
C        1.9639255230   -1.0165762100   -0.1409094660
C        3.0381742137   -1.2615943378    0.7207678671
C        2.8382729610   -1.2736887314    2.1073345668
C        1.5785464729   -1.0245832249    2.6418253198
C        0.4961199558   -0.8062762059    1.7737746487
C        0.6889192328   -0.7926000739    0.3874307147
H       -0.1526107159   -0.6144353361   -0.2760274895
H       -0.4980997754   -0.6504512023    2.1861060328
C        1.3535898644   -1.0994205047    4.1052576715
O        0.4186272776   -1.6454773707    4.6319184925
O        2.3541362836   -0.5472898431    4.8298454202
H        2.0881488769   -0.6791249735    5.7514258405
H        3.6787888760   -1.4750765816    2.7669377704
H        4.0284918307   -1.4467005059    0.3145360760
15   

H        2.1067605591   -0.9837238144   -1.2155332346
C        1.9581514278   -1.0062204950   -0.1394207311
C        3.0296494090   -1.2973250270    0.7117954564
C        2.8360243652   -1.3272288295    2.0988935466
C        1.5870257975   -1.0499551465    2.6422064415
C        0.5058422143   -0.7862417548    1.7866925337
C        0.6923847347   -0.7543509460    0.3996203612
H       -0.1466320054   -0.5407498912   -0.2565023461
H       -0.4808916538   -0.6098394031    2.2079206747
C        1.3771931461   -1.1498765936    4.1105319093
O        0.5893773061   -1.8830917488    4.6473898020
O        2.2370599311   -0.3838117637    4.8190324223
H        2.0116250011   -0.5557880450    5.7446717847
H        3.6699136805   -1.5622554006    2.7556338283
H        4.0120832474   -1.5040851458    0.2969633252
15   

H        2.0896331458   -0.9507903517   -1.2157595483
C        1.9514577792   -0.9933122960   -0.1388610748
C        3.0217381236   -1.3390446046    0.6934664496
C        2.8415350846   -1.3943120820    2.0815637010
C        1.6068433651   -1.0943036303    2.6431602318
C        0.5275842618   -0.7671067864    1.8080133769
C        0.7008689769   -0.7096706352    0.4199561997
H       -0.1361614683   -0.4497453619   -0.2218162959
H       -0.4463801691   -0.5603676897    2.2442928989
C        1.4183744819   -1.2028470139    4.1181755102
O        0.8236908824   -2.0837035743    4.6786892923
O        2.0538798553   -0.2230816604    4.7977142173
H        1.8716601793   -0.4128222106    5.7292572739
H        3.6732241458   -1.6688434901    2.7254200944
H        3.9926313706   -1.5674538059    0.2631016523
15   

H        2.0780869123   -0.9098245872   -1.2148585871
C        1.9525835573   -0.9734705043   -0.1374504900
C        3.0178275845   -1.3854871206    0.6707002886
C        2.8537545594   -1.4680159714    2.0594546257
C        1.6377601395   -1.1415041076    2.6452017903
C        0.5679591737   -0.7298467972    1.8353318220
C        0.7247767396   -0.6452630717    0.4467129506
H       -0.1065117978   -0.3263707349   -0.1756232059
H       -0.3858864982   -0.4777535656    2.2914383701
C        1.4730089987   -1.2405544486    4.1258747246
O        1.1012532053   -2.2147593928    4.7218263265
O        1.7928661029   -0.0917309780    4.7602209369
H        1.6470278183   -0.2803551402    5.6983165686
H        3.6824125223   -1.7907055204    2.6845548106
H        3.9726394191   -1.6427916704    0.2210765799
15   

H        2.0619300015   -0.8790493971   -1.2142884075
C        1.9514688741   -0.9557137667   -0.1360818882
C        3.0114372363   -1.4250709409    0.6471003798
C        2.8664447572   -1.5247666222    2.0368281587
C        1.6710777304   -1.1693990617    2.6487218174
C        0.6126023737   -0.6836220139    1.8642054694
C        0.7500734027   -0.5820558610    0.4747114332
H       -0.0749029800   -0.2118188158   -0.1272486775
H       -0.3175967876   -0.3865710419    2.3416221251
C        1.5383119488   -1.2544280516    4.1318157707
O        1.4097146879   -2.2666544531    4.7662480239
O        1.5123009173   -0.0369476108    4.7172106940
H        1.4075069287   -0.2213765699    5.6616544444
H        3.6920747513   -1.8895828804    2.6426977083
H        3.9478265424   -1.7126184462    0.1774794194
15   

H        2.0487282243   -0.8846210837   -1.2172488919
C        1.9501732619   -0.9588596013   -0.1377204811
C        3.0022849873   -1.4686811882    0.6303329495
C        2.8726607065   -1.5653425127    2.0217252364
C        1.6979208442   -1.1710126480    2.6518016138
C        0.6503152058   -0.6382454505    1.8810806524
C        0.7728985051   -0.5398083253    0.4900044838
H       -0.0447276164   -0.1354386057   -0.0998981831
H       -0.2602933681   -0.3018335925    2.3702924010
C        1.5964290045   -1.2427548451    4.1339544843
O        1.7085418184   -2.2410864406    4.7950790157
O        1.2701426795   -0.0543671805    4.6902017772
H        1.2142081622   -0.2364198062    5.6393665779
H        3.6927049607   -1.9612305262    2.6159929651
H        3.9210358396   -1.7898441910    0.1478198207
15   

H        2.0333482002   -0.9131398447   -1.2227799965
C        1.9445723189   -0.9746810765   -0.1416053782
C        2.9880041220   -1.5117232564    0.6193108922
C        2.8713850995   -1.5919213787    2.0127836059
C        1.7174240984   -1.1528007744    2.6543384806
C        0.6776825373   -0.5944717480    1.8881686976
C        0.7885130592   -0.5127326148    0.4950170417
H       -0.0224194912   -0.0880491363   -0.0898371944
H       -0.2191297059   -0.2253041226    2.3794632852
C        1.6441545613   -1.2154775829    4.1344176728
O        1.9849076384   -2.1537229375    4.8074671940
O        1.0718749174   -0.1194488336    4.6837195331
H        1.0708122497   -0.2971129126    5.6354745570
H        3.6854929437   -2.0098007078    2.6006347347
H        3.8902879177   -1.8671373678    0.1297716482
15   

H        2.0177214431   -0.9530387990   -1.2296521129
C        1.9381291061   -0.9963334469   -0.1468787916
C        2.9725888402   -1.5530641553    0.6115626625
C        2.8683765349   -1.6096800419    2.0070876944
C        1.7361895746   -1.1234446828    2.6558132027
C        0.7023970857   -0.5507018371    1.8890972559
C        0.8022460666   -0.4928422982    0.4939286807
H       -0.0027080586   -0.0551392909   -0.0896011510
H       -0.1835729394   -0.1515384295    2.3766152349
C        1.6838699788   -1.1792633719    4.1339537702
O        2.2303402313   -2.0124054923    4.8120087637
O        0.9059726717   -0.2185083100    4.6851734013
H        0.9568713150   -0.3830072317    5.6380261028
H        3.6777040849   -2.0441231715    2.5899185251
H        3.8587784974   -1.9425880670    0.1185777649
15   

H        1.9967622978   -0.9985489917   -1.2355066768
C        1.9271955124   -1.0218995462   -0.1514282918
C        2.9532645841   -1.5945607253    0.6058808602
C        2.8626774277   -1.6251127168    2.0031200482
C        1.7537231703   -1.0925346466    2.6572694761
C        0.7245635520   -0.5100196238    1.8889142620
C        0.8119452268   -0.4783033452    0.4920856474
H        0.0122840049   -0.0302804200   -0.0909041200
H       -0.1498626680   -0.0810754281    2.3718313748
C        1.7167859944   -1.1395533839    4.1348693982
O        2.4373567390   -1.8226228019    4.8195694351
O        0.7649311814   -0.3497072262    4.6851519021
H        0.8588006105   -0.4876086516    5.6390228184
H        3.6683853389   -2.0734523667    2.5805920357
H        3.8229864423   -2.0170559289    0.1107122986
15   

H        1.9716838252   -1.0475018511   -1.2388639937
C        1.9132133718   -1.0499014871   -0.1538816173
C        2.9316319826   -1.6363231689    0.6029275448
C        2.8559176633   -1.6392787990    2.0013721641
C        1.7711758701   -1.0614683951    2.6583320889
C        0.7462428447   -0.4710201602    1.8892632664
C        0.8193502697   -0.4666599043    0.4912754733
H        0.0247347225   -0.0093774492   -0.0914311677
H       -0.1134979861   -0.0118416369    2.3706635464
C        1.7452535820   -1.0947464362    4.1362315885
O        2.6010901807   -1.5895811598    4.8276185173
O        0.6531705491   -0.5093032321    4.6816360760
H        0.7779856497   -0.6089904133    5.6367401828
H        3.6566943132   -2.0997823936    2.5761518015
H        3.7841533971   -2.0910886400    0.1064278001
15   

H        1.9428083352   -1.0963257710   -1.2386207538
C        1.8962408826   -1.0779958071   -0.1532147370
C        2.9074102642   -1.6776606869    0.6032335782
C        2.8472829559   -1.6530115717    2.0022310415
C        1.7877701653   -1.0308317694    2.6592356365
C        0.7669194402   -0.4332575516    1.8913605282
C        0.8243409626   -0.4558363093    0.4928024549
H        0.0346412120    0.0102407467   -0.0896116286
H       -0.0752432352    0.0541578484    2.3761403988
C        1.7680236527   -1.0466950957    4.1378279895
O        2.7114770644   -1.3258307833    4.8353945750
O        0.5776514640   -0.6891163177    4.6743416096
H        0.7186256802   -0.7416484455    5.6309317229
H        3.6406252459   -2.1237622585    2.5789886783
H        3.7419411662   -2.1639322763    0.1060330834
15   

H        1.9153641182   -1.1385418637   -1.2355605112
C        1.8803414476   -1.1010626058   -0.1502144130
C        2.8824905366   -1.7163503941    0.6063618051
C        2.8371716160   -1.6662333475    2.0052864486
C        1.8045831785   -0.9994947031    2.6597614547
C        0.7894773268   -0.3928857522    1.8941242509
C        0.8314071870   -0.4399933447    0.4956123051
H        0.0476218529    0.0360742579   -0.0866954467
H       -0.0337941155    0.1199069433    2.3852615820
C        1.7840533419   -0.9976994261    4.1397371598
O        2.7616547916   -1.0494982360    4.8426783265
O        0.5419984153   -0.8781429564    4.6641639000
H        0.6825570186   -0.8801506657    5.6221921258
H        3.6205535689   -2.1476981081    2.5866194764
H        3.6978777951   -2.2341902422    0.1092897776
15   

H        1.8897885084   -1.1733117088   -1.2310667731
C        1.8653334873   -1.1182843919   -0.1461792303
C        2.8555595778   -1.7517523686    0.6116652846
C        2.8236111673   -1.6785019759    2.0100256110
C        1.8194261163   -0.9679417384    2.6602269800
C        0.8133159723   -0.3486616144    1.8959988888
C        0.8408644118   -0.4178542241    0.4980397633
H        0.0649308013    0.0702587344   -0.0847937527
H        0.0095144887    0.1890701124    2.3926628269
C        1.7934632355   -0.9448832003    4.1430370010
O        2.7502839752   -0.7666230362    4.8516483970
O        0.5468180502   -1.0710146494    4.6534115656
H        0.6708104815   -1.0220403449    5.6123853274
H        3.5954065225   -2.1730651906    2.5954338573
H        3.6506069048   -2.3015119703    0.1159354807
15   

H        1.8737394272   -1.2017561293   -1.2273502467
C        1.8548441008   -1.1316265106   -0.1432234866
C        2.8264986829   -1.7872613893    0.6201856210
C        2.8015836751   -1.6941567534    2.0176222523
C        1.8244835839   -0.9416422295    2.6591073548
C        0.8359084210   -0.3018934953    1.8917938472
C        0.8555569284   -0.3900063065    0.4947757713
H        0.0933598391    0.1148180509   -0.0919272734
H        0.0524911613    0.2650286811    2.3883476649
C        1.7910699962   -0.8900048866    4.1451899715
O        2.6770102737   -0.4859195492    4.8509845332
O        0.5974157429   -1.2735575950    4.6513677125
H        0.6959093921   -1.1757375393    5.6094469827
H        3.5577835490   -2.2057506153    2.6082045941
H        3.6011896031   -2.3695058896    0.1293566877
15   

H        1.8759943522   -1.2160235311   -1.2250216026
C        1.8528325597   -1.1344742946   -0.1417757216
C        2.7940656291   -1.8190166136    0.6345525921
C        2.7635605273   -1.7112254378    2.0308891714
C        1.8088804705   -0.9196584023    2.6566764989
C        0.8545996781   -0.2450485086    1.8781747162
C        0.8795041031   -0.3474880822    0.4821827577
H        0.1425635009    0.1822971357   -0.1146954956
H        0.0943203887    0.3599501437    2.3653999755
C        1.7699864762   -0.8345619914    4.1451889787
O        2.5399579867   -0.2183024690    4.8314923067
O        0.7111690423   -1.4888468508    4.6709640171
H        0.7857289998   -1.3482301200    5.6257611509
H        3.4961621264   -2.2446379816    2.6313886779
H        3.5494041659   -2.4346844052    0.1544805048
15   

H        1.9106466536   -1.2132794434   -1.2245241053
C        1.8684755446   -1.1259015890   -0.1423056393
C        2.7633789583   -1.8466281309    0.6560121800
C        2.7082077333   -1.7317931572    2.0510529156
C        1.7676188039   -0.9061614372    2.6526979286
C        0.8706340046   -0.1813076956    1.8528038355
C        0.9201932318   -0.2911092311    0.4579934437
H        0.2238369763    0.2723222573   -0.1565536834
H        0.1363161141    0.4686379481    2.3215827187
C        1.7235761227   -0.7864501195    4.1403386036
O        2.3327034541    0.0170083868    4.7929140153
O        0.9060189859   -1.6989712904    4.7090252519
H        0.9623961798   -1.5211176629    5.6587941680
H        3.4062956428   -2.2911159892    2.6686159071
H        3.5024428762   -2.4949346670    0.1939343604
15   

H        1.9514609642   -1.2012023310   -1.2237354343
C        1.8846855786   -1.1143253977   -0.1427153994
C        2.7255929069   -1.8757525947    0.6763715811
C        2.6387882206   -1.7617532588    2.0698602660
C        1.7112776663   -0.9050374246    2.6491887030
C        0.8813241738   -0.1260216045    1.8284330972
C        0.9626031587   -0.2353284225    0.4350648839
H        0.3135533816    0.3652760433   -0.1958564375
H        0.1751449659    0.5660273619    2.2801705664
C        1.6627576143   -0.7599503163    4.1322825295
O        2.0749834754    0.1840236460    4.7509227253
O        1.1553112712   -1.8515652792    4.7458418817
H        1.1933972043   -1.6420439215    5.6901025520
H        3.2972786910   -2.3501739413    2.7037188055
H        3.4482923926   -2.5539656878    0.2316798057
15   

H        1.9884322791   -1.1981718387   -1.2223635738
C        1.8991830466   -1.1130900152   -0.1428245270
C        2.6940528927   -1.9055303976    0.6924233232
C        2.5786730363   -1.7936296870    2.0840381168
C        1.6632396550   -0.9118325715    2.6466059170
C        0.8864723257   -0.0964226190    1.8086645078
C        0.9963928326   -0.2033946674    0.4171693362
H        0.3858289991    0.4242338167   -0.2257659620
H        0.1995298747    0.6232946842    2.2471981236
C        1.5962129775   -0.7529458054    4.1231748595
O        1.7812220763    0.2768979128    4.7161909590
O        1.3883458612   -1.9219443556    4.7700387270
H        1.3885165390   -1.6850538813    5.7087015266
H        3.2045959821   -2.4055556257    2.7287735596
H        3.4041910849   -2.6057745028    0.2618729406
15   

H        2.0149215449   -1.1944443402   -1.2224271149
C        1.9110579143   -1.1123891683   -0.1439610952
C        2.6681555296   -1.9321834180    0.6994086783
C        2.5343863698   -1.8244260447    2.0897928548
C        1.6372779206   -0.9181442789    2.6452156359
C        0.8985684053   -0.0769154620    1.7970061400
C        1.0272050954   -0.1795217515    0.4069584198
H        0.4454532381    0.4694414578   -0.2415041033
H        0.2252660192    0.6605112363    2.2278625382
C        1.5411089085   -0.7595789055    4.1160822823
O        1.4896697931    0.2955813614    4.6937461185
O        1.5887155725   -1.9344695064    4.7856601476
H        1.5334257153   -1.6844557999    5.7194033941
H        3.1353321039   -2.4599893010    2.7355668321
H        3.3639639035   -2.6510315455    0.2761763322
15   

H        2.0401907693   -1.1866233107   -1.2236677134
C        1.9256882927   -1.1083723996   -0.1459963239
C        2.6489149691   -1.9537305790    0.7011561829
C        2.5017305012   -1.8517560583    2.0907516065
C        1.6270662862   -0.9213713044    2.6441669162
C        0.9177632072   -0.0597451571    1.7893951468
C        1.0602877390   -0.1566556915    0.4005042016
H        0.5019667421    0.5104023644   -0.2502088453
H        0.2537796384    0.6897797080    2.2143291652
C        1.4956755607   -0.7734985858    4.1107632085
O        1.2113619973    0.2520745689    4.6764041840
O        1.7686334175   -1.9065748266    4.7996560143
H        1.6502193675   -1.6594029674    5.7283742049
H        3.0806732969   -2.5125348972    2.7312363258
H        3.3291002103   -2.6893840645    0.2814013912
15   

H        2.0648549884   -1.1740143388   -1.2244986265
C        1.9406970305   -1.1009781475   -0.1475290220
C        2.6308888561   -1.9717995399    0.7007446863
C        2.4713793375   -1.8776009104    2.0896492677
C        1.6211153547   -0.9241296484    2.6435138879
C        0.9377950114   -0.0436268093    1.7850007234
C        1.0931447903   -0.1330635030    0.3971583750
H        0.5565612809    0.5511376862   -0.2540569841
H        0.2815444833    0.7154855053    2.2051759097
C        1.4546566499   -0.7934309211    4.1070616868
O        0.9511186087    0.1524007142    4.6606327138
O        1.9392676599   -1.8416878739    4.8143195420
H        1.7607607003   -1.6121244880    5.7380093259
H        3.0265236662   -2.5652979532    2.7226372903
H        3.2946142297   -2.7230496649    0.2822451719
15   

H        2.0869134897   -1.1573567636   -1.2238971913
C        1.9531979077   -1.0915837184   -0.1476030383
C        2.6109763207   -1.9883130965    0.6991181702
C        2.4389648236   -1.9040534453    2.0872114912
C        1.6135344168   -0.9298471498    2.6431869150
C        0.9544077959   -0.0303193299    1.7846256537
C        1.1225172518   -0.1098426268    0.3977283103
H        0.6071072149    0.5915444440   -0.2523109826
H        0.3061437271    0.7364525741    2.2033544720
C        1.4158270656   -0.8205743991    4.1043664813
O        0.7150869652    0.0001981621    4.6434598662
O        2.0995468123   -1.7382239612    4.8286323134
H        1.8698878172   -1.5386221093    5.7479960409
H        2.9660070349   -2.6178585439    2.7151962430
H        3.2580459435   -2.7535749538    0.2799109776
