15   

H        2.1271735156   -1.0610758182   -1.2209000586
C        1.9701880223   -1.0475304428   -0.1458256020
C        3.0517400140   -1.2090818846    0.7250415175
C        2.8496035073   -1.1921327329    2.1114852719
C        1.5750217493   -1.0076583079    2.6408529889
C        0.4892273936   -0.8565667135    1.7591057598
C        0.6850900564   -0.8725846409    0.3736021996
H       -0.1620525353   -0.7512158072   -0.2955417332
H       -0.5139387070   -0.7261739499    2.1592543564
C        1.3363139185   -1.0078945632    4.1002347776
O        0.2532049108   -1.1124393342    4.6203504509
O        2.4619677525   -0.8943827626    4.8444945146
H        2.1477967189   -0.9106840562    5.7603534850
H        3.7100954671   -1.3264422094    2.7621009824
H        4.0522035628   -1.3500577563    0.3259820530
15   

H        2.1246472853   -1.0335677580   -1.2187905088
C        1.9683865380   -1.0309926713   -0.1435298016
C        3.0460703741   -1.2339596834    0.7240858402
C        2.8439185366   -1.2315988433    2.1105081007
C        1.5758451323   -1.0141948099    2.6412102956
C        0.4920431675   -0.8312814733    1.7648196912
C        0.6874089118   -0.8324313415    0.3789791961
H       -0.1568539710   -0.6835925600   -0.2882414911
H       -0.5072725800   -0.6894837457    2.1703958253
C        1.3412519635   -1.0533571554    4.1018528964
O        0.3073808204   -1.3862309155    4.6242305881
O        2.4261715669   -0.7149019537    4.8376101137
H        2.1290437843   -0.7916081090    5.7560133336
H        3.6941522799   -1.4007106869    2.7666543233
H        4.0421658810   -1.3970849576    0.3225687321
15   

H        2.1177431696   -1.0081094383   -1.2164901117
C        1.9639219148   -1.0165899181   -0.1409080535
C        3.0381700650   -1.2616043730    0.7207711856
C        2.8382667866   -1.2736982318    2.1073376471
C        1.5785392440   -1.0245961847    2.6418248852
C        0.4961126419   -0.8062935907    1.7737735737
C        0.6889139174   -0.7926176241    0.3874299092
H       -0.1526154091   -0.6144553365   -0.2760297388
H       -0.4981077284   -0.6504705357    2.1861040985
C        1.3535862452   -1.0994281784    4.1052591957
O        0.4186322885   -1.6454844608    4.6319319426
O        2.3541343617   -0.5472865974    4.8298364522
H        2.0881475111   -0.6791054161    5.7514193529
H        3.6787826955   -1.4750823725    2.7669420128
H        4.0284889568   -1.4467074406    0.3145410856
15   

H        2.1067587005   -0.9837344881   -1.2155328148
C        1.9581488818   -1.0062315490   -0.1394204142
C        3.0296469308   -1.2973336477    0.7117965607
C        2.8360211088   -1.3272371152    2.0988945858
C        1.5870224546   -1.0499659896    2.6422061447
C        0.5058384110   -0.7862553013    1.7866920451
C        0.6923813557   -0.7543645307    0.3996199298
H       -0.1466354166   -0.5407649234   -0.2565032060
H       -0.4808957161   -0.6098539555    2.2079199704
C        1.3771912808   -1.1498826846    4.1105338262
O        0.5893811345   -1.8830960933    4.6473983084
O        2.2370586146   -0.3838121758    4.8190275694
H        2.0116177104   -0.5557734245    5.7446682500
H        3.6699107019   -1.5622609330    2.7556355146
H        4.0120815326   -1.5040916010    0.2969651571
15   

H        2.0896327241   -0.9507975856   -1.2157595024
C        1.9514566150   -0.9933205471   -0.1388611652
C        3.0217368158   -1.3390518904    0.6934669560
C        2.8415329041   -1.3943200049    2.0815640886
C        1.6068408550   -1.0943136274    2.6431597313
C        0.5275817284   -0.7671178307    1.8080125139
C        0.7008670959   -0.7096807914    0.4199554594
H       -0.1361632025   -0.4497558563   -0.2218173634
H       -0.4463829692   -0.5603793817    2.2442917240
C        1.4183718898   -1.2028539988    4.1181781231
O        0.8236936331   -2.0837055336    4.6786978889
O        2.0538776601   -0.2230841345    4.7977099225
H        1.8716518452   -0.4128140268    5.7292539195
H        3.6732220090   -1.6688498513    2.7254210895
H        3.9926307391   -1.5674593882    0.2631027800
15   

H        2.0780868925   -0.9098247640   -1.2148586047
C        1.9525835398   -0.9734706310   -0.1374505050
C        3.0178275892   -1.3854871586    0.6707002881
C        2.8537545594   -1.4680159714    2.0594546257
C        1.6377601395   -1.1415041076    2.6452017903
C        0.5679591565   -0.7298468709    1.8353318039
C        0.7247767095   -0.6452632235    0.4467129239
H       -0.1065118476   -0.3263709665   -0.1756232501
H       -0.3858865222   -0.4777536497    2.2914383419
C        1.4730089987   -1.2405544486    4.1258747246
O        1.1012532053   -2.2147593928    4.7218263265
O        1.7928661535   -0.0917309948    4.7602209409
H        1.6470276120   -0.2803550733    5.6983165480
H        3.6824125336   -1.7907054731    2.6845548203
H        3.9726394405   -1.6427916710    0.2210765917
15   

H        2.0619300318   -0.8790493857   -1.2142884120
C        1.9514689089   -0.9557137226   -0.1360818888
C        3.0114372439   -1.4250709503    0.6471003804
C        2.8664447572   -1.5247666222    2.0368281587
C        1.6710777304   -1.1693990617    2.6487218174
C        0.6126024333   -0.6836218740    1.8642054740
C        0.7500734714   -0.5820557146    0.4747114373
H       -0.0749028847   -0.2118185893   -0.1272486608
H       -0.3175966795   -0.3865708089    2.3416221760
C        1.5383119488   -1.2544280516    4.1318157707
O        1.4097146879   -2.2666544531    4.7662480239
O        1.5122984113   -0.0369475105    4.7172103946
H        1.4075136037   -0.2213766878    5.6616551195
H        3.6920747343   -1.8895829609    2.6426976787
H        3.9478265268   -1.7126185271    0.1774794156
15   

H        2.0487282477   -0.8846210892   -1.2172489107
C        1.9501732888   -0.9588595918   -0.1377204971
C        3.0022850075   -1.4686811745    0.6303329476
C        2.8726607065   -1.5653425127    2.0217252364
C        1.6979208442   -1.1710126480    2.6518016138
C        0.6503152071   -0.6382454604    1.8810806243
C        0.7728985211   -0.5398083279    0.4900044567
H       -0.0447276091   -0.1354386196   -0.0998982064
H       -0.2602933798   -0.3018336298    2.3702923901
C        1.5964290045   -1.2427548451    4.1339544843
O        1.7085418184   -2.2410864406    4.7950790157
O        1.2701397481   -0.0543678021    4.6902014340
H        1.2142177736   -0.2364174965    5.6393675352
H        3.6927049525   -1.9612305811    2.6159929357
H        3.9210358544   -1.7898441959    0.1478198155
15   

H        2.0333481764   -0.9131401158   -1.2227800424
C        1.9445723023   -0.9746812792   -0.1416054204
C        2.9880041379   -1.5117233301    0.6193108917
C        2.8713850995   -1.5919213787    2.0127836059
C        1.7174240984   -1.1528007744    2.6543384806
C        0.6776824725   -0.5944719353    1.8881686298
C        0.7885129951   -0.5127328938    0.4950169675
H       -0.0224196175   -0.0880495736   -0.0898372945
H       -0.2191298573   -0.2253044433    2.3794631724
C        1.6441545613   -1.2154775829    4.1344176728
O        1.9849076384   -2.1537229375    4.8074671940
O        1.0718726885   -0.1194498651    4.6837193102
H        1.0708205479   -0.2971088479    5.6354752963
H        3.6854929553   -2.0098006888    2.6006347297
H        3.8902879605   -1.8671374231    0.1297716819
15   

H        2.0177214226   -0.9530388344   -1.2296521280
C        1.9381290890   -0.9963334807   -0.1468788059
C        2.9725888324   -1.5530641583    0.6115626599
C        2.8683765349   -1.6096800419    2.0070876944
C        1.7361895746   -1.1234446828    2.6558132027
C        0.7023970410   -0.5507019326    1.8890972264
C        0.8022460252   -0.4928423891    0.4939286574
H       -0.0027081374   -0.0551394444   -0.0896011701
H       -0.1835730586   -0.1515386333    2.3766151652
C        1.6838699788   -1.1792633719    4.1339537702
O        2.2303402313   -2.0124054923    4.8120087637
O        0.9059713243   -0.2185093250    4.6851732896
H        0.9568765265   -0.3830031880    5.6380265104
H        3.6777040895   -2.0441231808    2.5899185107
H        3.8587784898   -1.9425880627    0.1185777638
15   

H        1.9967624115   -0.9985488555   -1.2355066814
C        1.9271955884   -1.0218994594   -0.1514282995
C        2.9532646306   -1.5945606710    0.6058808638
C        2.8626774277   -1.6251127168    2.0031200482
C        1.7537231703   -1.0925346466    2.6572694761
C        0.7245635578   -0.5100196282    1.8889142394
C        0.8119452718   -0.4783033037    0.4920856267
H        0.0122840524   -0.0302803842   -0.0909041492
H       -0.1498626976   -0.0810754744    2.3718313248
C        1.7167859944   -1.1395533839    4.1348693982
O        2.4373567390   -1.8226228019    4.8195694351
O        0.7649306341   -0.3497078598    4.6851518645
H        0.8588027324   -0.4876061984    5.6390229626
H        3.6683853155   -2.0734524059    2.5805920378
H        3.8229865042   -2.0170558613    0.1107123156
15   

H        1.9716837725   -1.0475018975   -1.2388639955
C        1.9132133387   -1.0499015179   -0.1538816184
C        2.9316319614   -1.6363231814    0.6029275411
C        2.8559176633   -1.6392787990    2.0013721641
C        1.7711758701   -1.0614683951    2.6583320889
C        0.7462428278   -0.4710201843    1.8892632653
C        0.8193502390   -0.4666599419    0.4912754733
H        0.0247346860   -0.0093775009   -0.0914311704
H       -0.1134980083   -0.0118416621    2.3706635361
C        1.7452535820   -1.0947464362    4.1362315885
O        2.6010901807   -1.5895811598    4.8276185173
O        0.6531705543   -0.5093032125    4.6816360716
H        0.7779856509   -0.6089903660    5.6367401807
H        3.6566943265   -2.0997823847    2.5761517901
H        3.7841533617   -2.0910886576    0.1064277813
15   

H        1.9428082552   -1.0963258815   -1.2386207539
C        1.8962408334   -1.0779958874   -0.1532147372
C        2.9074102383   -1.6776607332    0.6032335767
C        2.8472829559   -1.6530115717    2.0022310415
C        1.7877701653   -1.0308317694    2.6592356365
C        0.7669194302   -0.4332575689    1.8913605260
C        0.8243409272   -0.4558363718    0.4928024559
H        0.0346411673    0.0102406755   -0.0896116203
H       -0.0752432345    0.0541578643    2.3761403820
C        1.7680236527   -1.0466950957    4.1378279895
O        2.7114770644   -1.3258307833    4.8353945750
O        0.5776517189   -0.6891155062    4.6743416249
H        0.7186247752   -0.7416515273    5.6309316955
H        3.6406252711   -2.1237622239    2.5789886717
H        3.7419411353   -2.1639323319    0.1060330796
15   

H        1.9153641890   -1.1385417991   -1.2355605282
C        1.8803415048   -1.1010625600   -0.1502144304
C        2.8824905536   -1.7163503944    0.6063618035
C        2.8371716160   -1.6662333475    2.0052864486
C        1.8045831785   -0.9994947031    2.6597614547
C        0.7894773939   -0.3928856559    1.8941242165
C        0.8314072777   -0.4399932393    0.4956122734
H        0.0476219932    0.0360744426   -0.0866954811
H       -0.0337940076    0.1199071536    2.3852615035
C        1.7840533419   -0.9976994261    4.1397371598
O        2.7616547916   -1.0494982360    4.8426783265
O        0.5419985620   -0.8781412373    4.6641638761
H        0.6825563858   -0.8801571423    5.6221921970
H        3.6205535673   -2.1476981157    2.5866194711
H        3.6978778043   -2.2341902603    0.1092897810
15   

H        1.8897886209   -1.1733115951   -1.2310667986
C        1.8653335808   -1.1182843055   -0.1461792530
C        2.8555596158   -1.7517523453    0.6116652815
C        2.8236111673   -1.6785019759    2.0100256110
C        1.8194261163   -0.9679417384    2.6602269800
C        0.8133160806   -0.3486614589    1.8959988481
C        0.8408645498   -0.4178540617    0.4980397240
H        0.0649310032    0.0702589935   -0.0847937955
H        0.0095146739    0.1890704248    2.3926627583
C        1.7934632355   -0.9448832003    4.1430370010
O        2.7502839752   -0.7666230362    4.8516483970
O        0.5468177399   -1.0710122003    4.6534114536
H        0.6708114659   -1.0220495995    5.6123856429
H        3.5954065147   -2.1730652152    2.5954338444
H        3.6506069382   -2.3015119685    0.1159354894
15   

H        1.8737395032   -1.2017560781   -1.2273502644
C        1.8548441464   -1.1316264791   -0.1432235027
C        2.8264987071   -1.7872613741    0.6201856186
C        2.8015836751   -1.6941567534    2.0176222523
C        1.8244835839   -0.9416422295    2.6591073548
C        0.8359084537   -0.3018934575    1.8917938165
C        0.8555569779   -0.3900062591    0.4947757408
H        0.0933599118    0.1148181408   -0.0919273027
H        0.0524912240    0.2650287610    2.3883476544
C        1.7910699962   -0.8900048866    4.1451899715
O        2.6770102737   -0.4859195492    4.8509845332
O        0.5974147220   -1.2735547918    4.6513674801
H        0.6959125515   -1.1757469594    5.6094475658
H        3.5577835837   -2.2057505890    2.6082045684
H        3.6011896480   -2.3695058469    0.1293566852
15   

H        1.8759940904   -1.2160238457   -1.2250215843
C        1.8528323647   -1.1344745336   -0.1417757080
C        2.7940655379   -1.8190167222    0.6345525971
C        2.7635605273   -1.7112254378    2.0308891714
C        1.8088804705   -0.9196584023    2.6566764989
C        0.8545995333   -0.2450486957    1.8781747282
C        0.8795038734   -0.3474883664    0.4821827755
H        0.1425631712    0.1822967295   -0.1146954636
H        0.0943201983    0.3599498668    2.3654000420
C        1.7699864762   -0.8345619914    4.1451889787
O        2.5399579867   -0.2183024690    4.8314923067
O        0.7111675997   -1.4888447234    4.6709637836
H        0.7857326126   -1.3482356685    5.6257616530
H        3.4961622335   -2.2446378770    2.6313886359
H        3.5494040836   -2.4346844963    0.1544805001
15   

H        1.9106463786   -1.2132798054   -1.2245240875
C        1.8684753434   -1.1259018504   -0.1423056257
C        2.7633788605   -1.8466282632    0.6560121918
C        2.7082077333   -1.7317931572    2.0510529156
C        1.7676188039   -0.9061614372    2.6526979286
C        0.8706338846   -0.1813078432    1.8528038353
C        0.9201930173   -0.2911095033    0.4579934496
H        0.2238366695    0.2723218754   -0.1565536762
H        0.1363159528    0.4686377607    2.3215827112
C        1.7235761227   -0.7864501195    4.1403386036
O        2.3327034541    0.0170083868    4.7929140153
O        0.9060190475   -1.6989713417    4.7090252607
H        0.9623960905   -1.5211175896    5.6587941610
H        3.4062957111   -2.2911158994    2.6686159115
H        3.5024427692   -2.4949348250    0.1939343927
15   

H        1.9514648492   -1.2011995314   -1.2237352106
C        1.8846901936   -1.1143214851   -0.1427152206
C        2.7255968130   -1.8757491346    0.6763720586
C        2.6387926198   -1.7617487095    2.0698606993
C        1.7112838138   -0.9050314319    2.6491887415
C        0.8813310370   -0.1260150027    1.8284329872
C        0.9626092175   -0.2353228472    0.4350648069
H        0.3135597184    0.3652817841   -0.1958566438
H        0.1751525180    0.5660347174    2.2801703544
C        1.6627618949   -0.7599451383    4.1322855712
O        2.0749866191    0.1840223909    4.7509295601
O        1.1553132549   -1.8515619855    4.7458396275
H        1.1933878023   -1.6420400321    5.6901005987
H        3.2972820544   -2.3501702014    2.7037195591
H        3.4482951038   -2.5539637000    0.2316805870
15   

H        1.9884390104   -1.1981663553   -1.2223627783
C        1.8991899108   -1.1130835169   -0.1428238022
C        2.6940577981   -1.9055251680    0.6924247554
C        2.5786775198   -1.7936236373    2.0840394834
C        1.6632464380   -0.9118247996    2.6466060274
C        0.8864810666   -0.0964131512    1.8086645199
C        0.9964015783   -0.2033858787    0.4171694039
H        0.3858389530    0.4242433754   -0.2257662898
H        0.1995395626    0.6233051582    2.2471979390
C        1.5962172013   -0.7529411735    4.1231769655
O        1.7812278409    0.2768966197    4.7161987547
O        1.3883462694   -1.9219426071    4.7700344341
H        1.3885015181   -1.6850547072    5.7086978671
H        3.2045983919   -2.4055511467    2.7287754635
H        3.4041944311   -2.6057712447    0.2618750047
15   

H        2.0149314347   -1.1944360435   -1.2224247731
C        1.9110673119   -1.1123789780   -0.1439589450
C        2.6681612071   -1.9321751091    0.6994125352
C        2.5343907127   -1.8244161650    2.0897965145
C        1.6372851376   -0.9181310888    2.6452160037
C        0.8985795965   -0.0768995726    1.7970061133
C        1.0272173251   -0.1795075790    0.4069586163
H        0.4454681292    0.4694567028   -0.2415052188
H        0.2252788840    0.6605290353    2.2278618008
C        1.5411137294   -0.7595713251    4.1160844188
O        1.4896788121    0.2955801061    4.6937603843
O        1.5887119916   -1.9344689270    4.7856507762
H        1.5334088397   -1.6844647812    5.7193957798
H        3.1353330938   -2.4599816464    2.7355714426
H        3.3639672434   -2.6510263584    0.2761816450
15   

H        2.0401967589   -1.1866165640   -1.2236655068
C        1.9256941438   -1.1083636478   -0.1459942794
C        2.6489176466   -1.9537232175    0.7011597304
C        2.5017324774   -1.8517468180    2.0907549812
C        1.6270710150   -0.9213588956    2.6441673895
C        0.9177714083   -0.0597306492    1.7893952783
C        1.0602964406   -0.1566431976    0.4005045150
H        0.5019778165    0.5104156739   -0.2502097247
H        0.2537898144    0.6897961708    2.2143288664
C        1.4956788248   -0.7734899047    4.1107672385
O        1.2113706235    0.2520767369    4.6764130352
O        1.7686308800   -1.9065713298    4.7996538762
H        1.6502094876   -1.6594061572    5.7283728752
H        3.0806724920   -2.5125272956    2.7312405159
H        3.3291005971   -2.6893795541    0.2814062163
15   

H        2.0648546860   -1.1740151759   -1.2244974861
C        1.9406967478   -1.1009767208   -0.1475280348
C        2.6308866877   -1.9717980044    0.7007474131
C        2.4713770199   -1.8775965807    2.0896518253
C        1.6211151905   -0.9241232014    2.6435138155
C        0.9377967157   -0.0436200989    1.7849997381
C        1.0931464098   -0.1330593100    0.3971575341
H        0.5565643413    0.5511418207   -0.2540590661
H        0.2815477743    0.7154938849    2.2051743282
C        1.4546560578   -0.7934231178    4.1070663019
O        0.9511230189    0.1524037904    4.6606374231
O        1.9392657974   -1.8416820064    4.8143220722
H        1.7607570566   -1.6121211231    5.7380120917
H        3.0265197779   -2.5652936890    2.7226411285
H        3.2946105957   -2.7230502671    0.2822494084
15   

H        2.1248479462   -1.0886097075   -1.2217068604
C        1.9689205348   -1.0630879213   -0.1466950777
C        3.0551203917   -1.1833803563    0.7247592603
C        2.8547364967   -1.1505359610    2.1112145931
C        1.5758198306   -0.9981885517    2.6410089043
C        0.4868535485   -0.8776673249    1.7576335726
C        0.6811191640   -0.9097913351    0.3722463090
H       -0.1692853284   -0.8155215071   -0.2971323617
H       -0.5184873185   -0.7580303476    2.1557491132
C        1.3386134267   -0.9604966406    4.0999134626
O        0.2563915372   -0.8311031359    4.6169866066
O        2.4596394791   -1.0856136618    4.8494203464
H        2.1436198280   -1.0425286603    5.7637993715
H        3.7224386979   -1.2469562403    2.7588657624
H        4.0585607868   -1.3027877393    0.3261256874
