15   
torsion grid (-165,)
H        2.0835020813   -1.0603967666   -1.1749011707
C        1.9396368493   -1.0464506395   -0.1044567190
C        3.0260555434   -1.2105855866    0.7405195402
C        2.8496089340   -1.1921315220    2.1114825651
C        1.5750277870   -1.0076546219    2.6408534493
C        0.4834333617   -0.8531800550    1.7887943289
C        0.6688006501   -0.8677808952    0.4199969474
H       -0.1760433284   -0.7428553105   -0.2406898507
H       -0.4968315567   -0.7213517559    2.2211785551
C        1.3363210858   -1.0078906867    4.1002309048
O        0.2532050539   -1.1124340541    4.6203452440
O        2.4622292375   -0.8933182303    4.8243707431
H        2.2443596670   -0.9094543074    5.7692419452
H        3.6888327096   -1.3199982162    2.7771806538
H        4.0134147451   -1.3550525901    0.3276119009
15   
torsion grid (-150,)
H        2.0844540853   -1.0418941473   -1.1741379880
C        1.9401375629   -1.0358936410   -0.1037403654
C        3.0207518328   -1.2410685492    0.7392589956
C        2.8439259868   -1.2315912278    2.1105048385
C        1.5758537613   -1.0141836917    2.6412106212
C        0.4880940871   -0.8283482201    1.7915040935
C        0.6743871207   -0.8293010148    0.4224272716
H       -0.1668053096   -0.6750186415   -0.2367455924
H       -0.4905362440   -0.6806742084    2.2224013185
C        1.3412581693   -1.0533494998    4.1018494937
O        0.3073782575   -1.3862224383    4.6242210238
O        2.4243424391   -0.7091898578    4.8175438251
H        2.2257993100   -0.7716034968    5.7649588585
H        3.6790155201   -1.3904258122    2.7751076273
H        4.0034962415   -1.4117707913    0.3253950162
15   
torsion grid (-135,)
H        2.0823492447   -1.0229293641   -1.1746737451
C        1.9401998959   -1.0261320683   -0.1040095238
C        3.0143107017   -1.2726095670    0.7355518090
C        2.8382729610   -1.2736887314    2.1073345668
C        1.5785464729   -1.0245832249    2.6418253198
C        0.4952325897   -0.8038773845    1.7964015403
C        0.6817997323   -0.7909859095    0.4268725896
H       -0.1557101313   -0.6058016925   -0.2289744080
H       -0.4811462396   -0.6374492724    2.2256363327
C        1.3535898644   -1.0994205047    4.1052576715
O        0.4186272776   -1.6454773707    4.6319184925
O        2.3463723301   -0.5345730022    4.8099957587
H        2.1774607623   -0.6323404192    5.7605067582
H        3.6701041929   -1.4627939101    2.7684802967
H        3.9915431661   -1.4678728164    0.3196355785
15   
torsion grid (-120,)
H        2.0783164869   -0.9958656658   -1.1750612443
C        1.9391081444   -1.0137599869   -0.1042555768
C        3.0078468152   -1.3071877664    0.7263576437
C        2.8360243652   -1.3272288295    2.0988935466
C        1.5870257975   -1.0499551465    2.6422064415
C        0.5083716093   -0.7824292697    1.8064540811
C        0.6908148968   -0.7503343665    0.4360088558
H       -0.1436028123   -0.5281834821   -0.2123052599
H       -0.4629447433   -0.5934063017    2.2379890319
C        1.3771931461   -1.1498765936    4.1105319093
O        0.5893773061   -1.8830917488    4.6473898020
O        2.2195233102   -0.3656111886    4.7986171522
H        2.0809854127   -0.4776499099    5.7528912552
H        3.6656880272   -1.5521384368    2.7519068157
H        3.9778250588   -1.5238165452    0.3041345836
15   
torsion grid (-105,)
H        2.0658236762   -0.9568456211   -1.1761254143
C        1.9361479081   -0.9972613401   -0.1047919427
C        3.0021654662   -1.3440845711    0.7081459810
C        2.8415350846   -1.3943120820    2.0815637010
C        1.6068433651   -1.0943036303    2.6431602318
C        0.5323383515   -0.7644859075    1.8266589654
C        0.7030209050   -0.7071288980    0.4548243296
H       -0.1300626211   -0.4410755284   -0.1785107228
H       -0.4289807391   -0.5495535425    2.2687002761
C        1.4183744819   -1.2028470139    4.1181755102
O        0.8236908824   -2.0837035743    4.6786892923
O        2.0331706687   -0.2106626238    4.7756860121
H        1.9150888503   -0.3134556884    5.7341421998
H        3.6703903221   -1.6629498623    2.7192352608
H        3.9620062189   -1.5778653544    0.2722053571
15   
torsion grid (-90,)
H        2.0490852496   -0.9242964682   -1.1756258241
C        1.9337621777   -0.9854329244   -0.1036420688
C        2.9978064637   -1.3884834010    0.6853608738
C        2.8537545594   -1.4680159714    2.0594546257
C        1.6377601395   -1.1415041076    2.6452017903
C        0.5689928346   -0.7394859574    1.8547711947
C        0.7211219419   -0.6622405914    0.4814659449
H       -0.1100008673   -0.3489500342   -0.1325403113
H       -0.3757652426   -0.4909357327    2.3147651151
C        1.4730089987   -1.2405544486    4.1258747246
O        1.1012532053   -2.2147593928    4.7218263265
O        1.7945991226   -0.0933971473    4.7374874489
H        1.6820307182   -0.1761739837    5.6987189359
H        3.6804188715   -1.7841290057    2.6780293673
H        3.9437246479   -1.6421760717    0.2306108939
15   
torsion grid (-75,)
H        2.0238983156   -0.9108740131   -1.1755538682
C        1.9257099472   -0.9819696936   -0.1024591954
C        2.9900921379   -1.4298021215    0.6619329112
C        2.8664447572   -1.5247666222    2.0368281587
C        1.6710777304   -1.1693990617    2.6487218174
C        0.6078327877   -0.7069000477    1.8838450002
C        0.7360005702   -0.6231376356    0.5086167410
H       -0.0938231494   -0.2718209933   -0.0863159982
H       -0.3162422880   -0.4231689751    2.3647835441
C        1.5383119488   -1.2544280516    4.1318157707
O        1.4097146879   -2.2666544531    4.7662480239
O        1.5428778813   -0.0401315654    4.6977742952
H        1.4390954184   -0.1138730987    5.6605939005
H        3.6906592699   -1.8784857758    2.6379284971
H        3.9199028056   -1.7051231296    0.1869994392
15   
torsion grid (-60,)
H        2.0038087742   -0.9189364014   -1.1765313307
C        1.9193095660   -0.9874291043   -0.1020433083
C        2.9796842493   -1.4722864942    0.6458253140
C        2.8726607065   -1.5653425127    2.0217252364
C        1.6979208442   -1.1710126480    2.6518016138
C        0.6421650003   -0.6637857922    1.9034291547
C        0.7518792186   -0.5867919195    0.5266458048
H       -0.0731465461   -0.2057760152   -0.0566064352
H       -0.2615526855   -0.3444694419    2.4000143523
C        1.5964290045   -1.2427548451    4.1339544843
O        1.7085418184   -2.2410864406    4.7950790157
O        1.3076016764   -0.0490746139    4.6722053316
H        1.2234053446   -0.1262188442    5.6363078227
H        3.6901484433   -1.9487672990    2.6135650123
H        3.8926974062   -1.7768028658    0.1563869691
15   
torsion grid (-45,)
H        1.9886730963   -0.9393087524   -1.1792224753
C        1.9140605704   -0.9972201845   -0.1033179115
C        2.9666302145   -1.5128707118    0.6358039106
C        2.8713850995   -1.5919213787    2.0127836059
C        1.7174240984   -1.1528007744    2.6543384806
C        0.6701004758   -0.6165797566    1.9127970308
C        0.7670496802   -0.5532883229    0.5347315405
H       -0.0511134795   -0.1500035642   -0.0432867444
H       -0.2164562810   -0.2654406763    2.4181731061
C        1.6441545613   -1.2154775829    4.1344176728
O        1.9849076384   -2.1537229375    4.8074671940
O        1.1023117071   -0.1085321794    4.6656908676
H        1.0504512819   -0.1937997917    5.6309683286
H        3.6790644306   -1.9982216535    2.6026156841
H        3.8629097269   -1.8513469711    0.1377987473
15   
torsion grid (-30,)
H        1.9715061133   -0.9690572493   -1.1828970395
C        1.9069288260   -1.0112477822   -0.1055436499
C        2.9508226793   -1.5517053731    0.6288897709
C        2.8683765349   -1.6096800419    2.0070876944
C        1.7361895746   -1.1234446828    2.6558132027
C        0.6951031002   -0.5683513881    1.9176158786
C        0.7809176030   -0.5232817559    0.5384491996
H       -0.0303194327   -0.1027256279   -0.0370684493
H       -0.1753841031   -0.1867487693    2.4283395000
C        1.6838699788   -1.1792633719    4.1339537702
O        2.2303402313   -2.0124054923    4.8120087637
O        0.9259865842   -0.2077791768    4.6682265939
H        0.9107262766   -0.2966145918    5.6340829070
H        3.6672304224   -2.0318946762    2.5977501006
H        3.8292584319   -1.9263352585    0.1250507947
15   
torsion grid (-15,)
H        1.9549870875   -0.9993942377   -1.1863607602
C        1.9000821178   -1.0255153206   -0.1079099361
C        2.9334414194   -1.5898199884    0.6239494127
C        2.8626774277   -1.6251127168    2.0031200482
C        1.7537231703   -1.0925346466    2.6572694761
C        0.7201680665   -0.5205815157    1.9200813423
C        0.7961362048   -0.4938020701    0.5400487772
H       -0.0068061231   -0.0556691464   -0.0340227120
H       -0.1343948344   -0.1081153891    2.4332932695
C        1.7167859944   -1.1395533839    4.1348693982
O        2.4373567390   -1.8226228019    4.8195694351
O        0.7761950467   -0.3432201837    4.6699790496
H        0.7948331619   -0.4217806819    5.6364323015
H        3.6529694293   -2.0618201822    2.5947192369
H        3.7933979129   -2.0009929729    0.1167206987
15   
torsion grid (0,)
H        1.9376833463   -1.0318958267   -1.1880875583
C        1.8918974458   -1.0407084523   -0.1089305894
C        2.9138740792   -1.6274923701    0.6213907921
C        2.8559176633   -1.6392787990    2.0013721641
C        1.7711758701   -1.0614683951    2.6583320889
C        0.7462315590   -0.4726785669    1.9218721450
C        0.8114315826   -0.4649087472    0.5411296913
H        0.0177593820   -0.0089532749   -0.0320012542
H       -0.0904335612   -0.0270031423    2.4366087769
C        1.7452535820   -1.0947464362    4.1362315885
O        2.6010901807   -1.5895811598    4.8276185173
O        0.6572963194   -0.5111931861    4.6669246980
H        0.6996087282   -0.5658904250    5.6341948657
H        3.6385180746   -2.0896424383    2.5929466546
H        3.7542485688   -2.0750940181    0.1121564569
15   
torsion grid (15,)
H        1.9199120615   -1.0629611211   -1.1883857142
C        1.8836602355   -1.0552764270   -0.1088581270
C        2.8923403061   -1.6643077677    0.6215764839
C        2.8472829559   -1.6530115717    2.0022310415
C        1.7877701653   -1.0308317694    2.6592356365
C        0.7726643365   -0.4254442863    1.9231112846
C        0.8277166438   -0.4365677952    0.5418713337
H        0.0443865419    0.0371091899   -0.0310676798
H       -0.0457862557    0.0524683940    2.4384078310
C        1.7680236527   -1.0466950957    4.1378279895
O        2.7114770644   -1.3258307833    4.8353945750
O        0.5785860335   -0.7013493930    4.6585721888
H        0.6289179276   -0.7224690751    5.6268550446
H        3.6221863387   -2.1176083336    2.5929415965
H        3.7124148132   -2.1477594027    0.1120455528
15   
torsion grid (30,)
H        1.9029876608   -1.0932338962   -1.1868523114
C        1.8751889815   -1.0687702214   -0.1073758634
C        2.8692618451   -1.6995188834    0.6241817233
C        2.8371716160   -1.6662333475    2.0052864486
C        1.8045831785   -0.9994947031    2.6597614547
C        0.7997378127   -0.3787216596    1.9236557977
C        0.8445599906   -0.4079417790    0.5421228335
H        0.0717015203    0.0821685176   -0.0311792587
H       -0.0010525861    0.1291932142    2.4384026465
C        1.7840533419   -0.9976994261    4.1397371598
O        2.7616547916   -1.0494982360    4.8426783265
O        0.5440633473   -0.8999431928    4.6461802939
H        0.5850104251   -0.8869110864    5.6152811989
H        3.6044170491   -2.1457324906    2.5941241490
H        3.6682138465   -2.2181980477    0.1157544387
15   
torsion grid (45,)
H        1.8869010865   -1.1237511634   -1.1850974298
C        1.8670764704   -1.0823702270   -0.1060302478
C        2.8446819714   -1.7338792257    0.6287641544
C        2.8236111673   -1.6785019759    2.0100256110
C        1.8194261163   -0.9679417384    2.6602269800
C        0.8272962130   -0.3316932087    1.9218710273
C        0.8626263964   -0.3800737507    0.5402486000
H        0.1007397155    0.1252017013   -0.0345210054
H        0.0438273781    0.2062732989    2.4331977904
C        1.7934632355   -0.9448832003    4.1430370010
O        2.7502839752   -0.7666230362    4.8516483970
O        0.5543149984   -1.1016718358    4.6340583308
H        0.5727335186   -1.0595720385    5.6033926448
H        3.5821348781   -2.1738876610    2.5970200215
H        3.6224357000   -2.2871611764    0.1239171622
15   
torsion grid (60,)
H        1.8776824434   -1.1475159601   -1.1838117773
C        1.8615657936   -1.0920787089   -0.1053764381
C        2.8170699984   -1.7669943115    0.6364383873
C        2.8015836751   -1.6941567534    2.0176222523
C        1.8244835839   -0.9416422295    2.6591073548
C        0.8525478003   -0.2825069079    1.9155736970
C        0.8830713716   -0.3490309258    0.5342191350
H        0.1364886152    0.1741481904   -0.0445049265
H        0.0870602660    0.2873253646    2.4201383175
C        1.7910699962   -0.8900048866    4.1451899715
O        2.6770102737   -0.4859195492    4.8509845332
O        0.6134130444   -1.3071601336    4.6321325861
H        0.6077426436   -1.2419902214    5.6007679993
H        3.5459494359   -2.2101014917    2.6052409316
H        3.5748138796   -2.3529067135    0.1380370140
15   
torsion grid (75,)
H        1.8815593642   -1.1688357416   -1.1837700208
C        1.8603767389   -1.1003735236   -0.1062303027
C        2.7862759938   -1.7991804919    0.6501677812
C        2.7635605273   -1.7112254378    2.0308891714
C        1.8088804705   -0.9196584023    2.6566764989
C        0.8712029380   -0.2295918113    1.8990482171
C        0.9058087048   -0.3153922581    0.5184192187
H        0.1820860966    0.2282127545   -0.0703887800
H        0.1253562006    0.3771443762    2.3902750059
C        1.7699864762   -0.8345619914    4.1451889787
O        2.5399579867   -0.2183024690    4.8314923067
O        0.7306987203   -1.5120522913    4.6508899727
H        0.7117355669   -1.4320738001    5.6186058185
H        3.4861550993   -2.2491117774    2.6261233791
H        3.5279119365   -2.4155323729    0.1643717920
15   
torsion grid (90,)
H        1.9063454071   -1.1829837130   -1.1838648772
C        1.8676320072   -1.1052805576   -0.1074589919
C        2.7548331977   -1.8288266783    0.6713354279
C        2.7082077333   -1.7317931572    2.0510529156
C        1.7676188039   -0.9061614372    2.6526979286
C        0.8788087609   -0.1780040168    1.8726556690
C        0.9316558501   -0.2806871282    0.4936195704
H        0.2398979916    0.2851764982   -0.1123417179
H        0.1522300270    0.4659548264    2.3452440483
C        1.7235761227   -0.7864501195    4.1403386036
O        2.3327034541    0.0170083868    4.7929140153
O        0.9089641982   -1.6984403824    4.6863615287
H        0.8929931176   -1.6061518723    5.6531692705
H        3.3998495395   -2.2926095442    2.6618332504
H        3.4862366097   -2.4712863428    0.2042023963
15   
torsion grid (105,)
H        1.9428046071   -1.1797926441   -1.1832261367
C        1.8789346937   -1.1009484088   -0.1080941596
C        2.7190134672   -1.8572438902    0.6918013231
C        2.6387882206   -1.7617532588    2.0698602660
C        1.7112776663   -0.9050374246    2.6491887030
C        0.8811415266   -0.1323465725    1.8467938634
C        0.9606607276   -0.2402047455    0.4696970067
H        0.3083082923    0.3533899580   -0.1532053415
H        0.1746281200    0.5443728345    2.3035437525
C        1.6627576143   -0.7599503163    4.1322825295
O        2.0749834754    0.1840236460    4.7509227253
O        1.1343563598   -1.8395911839    4.7237990901
H        1.1324388838   -1.7318585725    5.6889611673
H        3.2909524805   -2.3506106211    2.6973321969
H        3.4405066854   -2.5229840383    0.2421020515
15   
torsion grid (120,)
H        1.9824274328   -1.1696452518   -1.1805960911
C        1.8944467979   -1.0946992537   -0.1068333637
C        2.6903640937   -1.8825647120    0.7080312218
C        2.5786730363   -1.7936296870    2.0840381168
C        1.6632396550   -0.9118325715    2.6466059170
C        0.8840655505   -0.1015550365    1.8281411559
C        0.9911777441   -0.2059827854    0.4533475640
H        0.3756292633    0.4128273623   -0.1823324744
H        0.1944028944    0.5979119920    2.2759344132
C        1.5962129775   -0.7529458054    4.1231748595
O        1.7812220763    0.2768979128    4.7161909590
O        1.3641527954   -1.9158068949    4.7492387732
H        1.3592500888   -1.7856589066    5.7112272295
H        3.1938905686   -2.4071828630    2.7246723972
H        3.4023978461   -2.5666687372    0.2709183596
15   
torsion grid (135,)
H        2.0074460022   -1.1586755454   -1.1789972729
C        1.9054811300   -1.0890521425   -0.1060134631
C        2.6643353899   -1.9068731878    0.7153496794
C        2.5343863698   -1.8244260447    2.0897928548
C        1.6372779206   -0.9181442789    2.6452156359
C        0.8954566732   -0.0785470136    1.8195045745
C        1.0209778230   -0.1762891038    0.4464518338
H        0.4352314837    0.4651691535   -0.1948622386
H        0.2222550048    0.6373323414    2.2662401117
C        1.5411089085   -0.7595789055    4.1160822823
O        1.4896697931    0.2955813614    4.6937461185
O        1.5743569141   -1.9337034570    4.7654294345
H        1.5412857105   -1.7852880062    5.7237820618
H        3.1202747574   -2.4592566417    2.7367414626
H        3.3620089401   -2.6087837671    0.2832959624
15   
torsion grid (150,)
H        2.0245868002   -1.1503907413   -1.1775936532
C        1.9136926083   -1.0838190620   -0.1052667721
C        2.6410095100   -1.9292791264    0.7173384212
C        2.5017305012   -1.8517560583    2.0907516065
C        1.6270662862   -0.9213713044    2.6441669162
C        0.9124654705   -0.0592553522    1.8160010883
C        1.0495315038   -0.1494220635    0.4440826904
H        0.4880323782    0.5117517526   -0.1989448884
H        0.2538711404    0.6684233450    2.2653723260
C        1.4956755607   -0.7734985858    4.1107632085
O        1.2113619973    0.2520745689    4.6764041840
O        1.7633655135   -1.9070851812    4.7793880535
H        1.6846815250   -1.7522776304    5.7337220756
H        3.0636754852   -2.5056139941    2.7395870165
H        3.3208065402   -2.6490158050    0.2859867645
15   
torsion grid (165,)
H        2.0397402470   -1.1397051725   -1.1774271516
C        1.9223690046   -1.0777443482   -0.1054533929
C        2.6180372997   -1.9500410141    0.7169667516
C        2.4713793375   -1.8776009104    2.0896492677
C        1.6211153547   -0.9241296484    2.6435138879
C        0.9310428267   -0.0419725357    1.8146326987
C        1.0791446182   -0.1241093718    0.4436842083
H        0.5405543951    0.5558432271   -0.1993241225
H        0.2849314208    0.6954455645    2.2663058413
C        1.4546566499   -0.7934309211    4.1070616868
O        0.9511186087    0.1524007142    4.6606327138
O        1.9390469222   -1.8414878032    4.7941694917
H        1.8110004736   -1.6948379804    5.7442257905
H        3.0093221230   -2.5514825368    2.7379558502
H        3.2780935392   -2.6876825012    0.2851655159
15   
torsion grid (180,)
H        2.0576180583   -1.1259520200   -1.1765927658
C        1.9321568654   -1.0698550389   -0.1052109946
C        2.5945828963   -1.9696019272    0.7152501607
C        2.4389648236   -1.9040534453    2.0872114912
C        1.6135344168   -0.9298471498    2.6431869150
C        0.9494199079   -0.0271024461    1.8148630881
C        1.1097357210   -0.0986467536    0.4448046262
H        0.5950674857    0.6009272134   -0.1967851031
H        0.3149539877    0.7194655002    2.2679600046
C        1.4158270656   -0.8205743991    4.1043664813
O        0.7150869652    0.0001981621    4.6434598662
O        2.1005193289   -1.7377497400    4.8085143834
H        1.9294621473   -1.6135415478    5.7549310337
H        2.9504623079   -2.5998188142    2.7336135847
H        3.2341608433   -2.7243828317    0.2821862658
