23   
torsion grid (-165,)
H        0.7362638912   -0.8961971025   -0.9402086669
C        1.3215272900   -0.9359079133   -0.0341678657
C        2.5044250182   -0.2212708499    0.0652713738
C        3.2559928908   -0.2746201294    1.2220670892
C        2.8321126322   -1.0557515934    2.2950427948
C        1.6325314139   -1.7533059944    2.2062132935
C        0.8896848737   -1.6927742926    1.0404472787
H       -0.0397636140   -2.2395732299    0.9789848782
H        1.2749651012   -2.3282494014    3.0478806433
O        3.6081461648   -1.0051117098    3.4201795793
C        3.4732645931   -1.9429091376    4.4135714198
C        3.4911254528   -1.4915066451    5.7286461224
C        3.4348254410   -2.3996466127    6.7693148747
C        3.3591381095   -3.7575165419    6.5084096570
C        3.3549628359   -4.2063430664    5.1984581174
C        3.4165684589   -3.3076446472    4.1494408896
H        3.4313773443   -3.6566769804    3.1270465848
H        3.3099217069   -5.2648358426    4.9885881272
H        3.3100031288   -4.4644318838    7.3227396204
H        3.4464383744   -2.0438605696    7.7887974863
H        3.5524829455   -0.4304260223    5.9145836140
H        4.1779179506    0.2775141985    1.3175390880
H        2.8436837782    0.3827132738   -0.7631135404
23   
torsion grid (-150,)
H        0.8677008636   -1.0551889308   -1.0192271662
C        1.3885485493   -1.0303067046   -0.0741198378
C        2.5894197272   -0.3497773203    0.0419260073
C        3.2613038217   -0.3216306783    1.2487384975
C        2.7305263008   -0.9784310310    2.3549179017
C        1.5160618898   -1.6475578520    2.2450175565
C        0.8554468581   -1.6724227011    1.0303226817
H       -0.0870277067   -2.1939826419    0.9511890683
H        1.0899656491   -2.1354338392    3.1097684162
O        3.4132505447   -0.8554734601    3.5362347326
C        3.3807545704   -1.8605270130    4.4669981845
C        3.4699781277   -1.4864755149    5.8044632632
C        3.5100540623   -2.4544638594    6.7894737929
C        3.4601209788   -3.7971042377    6.4530106307
C        3.3837809677   -4.1676577301    5.1213784217
C        3.3479218496   -3.2086359513    4.1258303464
H        3.3044950313   -3.4997349658    3.0861778578
H        3.3576182872   -5.2128538086    4.8505020191
H        3.4863685755   -4.5514969736    7.2245860666
H        3.5768176716   -2.1579453765    7.8256599462
H        3.5099145208   -0.4363300313    6.0489136335
H        4.1965031279    0.2052959266    1.3571425426
H        3.0080715132    0.1598020013   -0.8131721037
23   
torsion grid (-135,)
H        1.0007479440   -1.1803535076   -1.0756652166
C        1.4548401760   -1.1053051457   -0.0992034258
C        2.6804889087   -0.4788399336    0.0510943510
C        3.2687905396   -0.3873324794    1.2990342850
C        2.6216155500   -0.9181706946    2.4088511776
C        1.3869971553   -1.5418126874    2.2614898113
C        0.8113390383   -1.6329141176    1.0079100654
H       -0.1480654191   -2.1164164119    0.8975814809
H        0.8859985807   -1.9455612021    3.1295902140
O        3.2092997894   -0.7468114320    3.6387170603
C        3.2888725991   -1.7987213329    4.5107020156
C        3.4486848867   -1.4837020732    5.8575087866
C        3.5887768423   -2.4923433423    6.7904367966
C        3.5687364556   -3.8197335924    6.3941558055
C        3.4191905862   -4.1312265137    5.0540599829
C        3.2821499715   -3.1300961093    4.1093654969
H        3.1792173799   -3.3776480078    3.0627235936
H        3.4133513374   -5.1631110531    4.7350067910
H        3.6737158178   -4.6067188366    7.1253947435
H        3.7105321514   -2.2402529560    7.8334168118
H        3.4633667503   -0.4449641236    6.1484994363
H        4.2228469697    0.0984044016    1.4335831317
H        3.1861017710   -0.0647015426   -0.8085207354
23   
torsion grid (-120,)
H        1.1320857740   -1.2718750565   -1.1180875776
C        1.5165418319   -1.1625130915   -0.1152212226
C        2.7670859736   -0.6056505464    0.0916320287
C        3.2668461482   -0.4694716523    1.3743858798
C        2.5016328946   -0.8815024664    2.4576387095
C        1.2459096166   -1.4427774202    2.2534880470
C        0.7589426578   -1.5795299308    0.9668751346
H       -0.2176283314   -2.0129933581    0.8097110817
H        0.6636294181   -1.7646811590    3.1047431821
O        2.9927143750   -0.6802677608    3.7294961155
C        3.1971192939   -1.7570980397    4.5470329876
C        3.4213615189   -1.4804923696    5.8936883784
C        3.6695076857   -2.5111629961    6.7779458567
C        3.6943757826   -3.8238088024    6.3344464288
C        3.4770071931   -4.0961441362    4.9956159242
C        3.2303518105   -3.0722775613    4.0980818618
H        3.0713898008   -3.2910041541    3.0520037181
H        3.5018133182   -5.1154153324    4.6390589549
H        3.8851825406   -4.6284190895    7.0281631317
H        3.8415542069   -2.2885359931    7.8205751767
H        3.3988570764   -0.4529903139    6.2215839364
H        4.2396439048   -0.0375202698    1.5526257196
H        3.3616712911   -0.2822011938   -0.7497509940
23   
torsion grid (-105,)
H        1.2505825097   -1.3180166164   -1.1513950167
C        1.5676068065   -1.1945186549   -0.1267453270
C        2.8440309862   -0.7373347778    0.1536641083
C        3.2569274528   -0.5817457461    1.4650252377
C        2.3792581299   -0.8759942387    2.4997558491
C        1.0988196017   -1.3391745058    2.2225982540
C        0.6975747792   -1.4945330815    0.9083635924
H       -0.2983380329   -1.8520610972    0.6926718689
H        0.4318200220   -1.5714073160    3.0397910395
O        2.7763975060   -0.6615373136    3.8058168943
C        3.1100423476   -1.7387854064    4.5777074240
C        3.3846883496   -1.4805771126    5.9188601665
C        3.7440663666   -2.5137386095    6.7605187210
C        3.8321084052   -3.8108341697    6.2800730783
C        3.5612654607   -4.0651055169    4.9477681997
C        3.2015755723   -3.0380164186    4.0926640549
H        2.9962925528   -3.2423146532    3.0516931990
H        3.6305090224   -5.0719943353    4.5628924008
H        4.1116833194   -4.6171989463    6.9408598739
H        3.9552790927   -2.3055780476    7.7989666098
H        3.3112028193   -0.4652108395    6.2756752578
H        4.2489702701   -0.2269627167    1.7000624550
H        3.5252324421   -0.5056925735   -0.6515554818
23   
torsion grid (-90,)
H        1.3545811010   -1.3086345921   -1.1847630587
C        1.6070186262   -1.1957211324   -0.1411097145
C        2.9018514863   -0.8702874133    0.2265146722
C        3.2312729205   -0.7256316030    1.5622030614
C        2.2550136951   -0.9063713090    2.5332535764
C        0.9556691135   -1.2334653713    2.1685443879
C        0.6363740131   -1.3754700034    0.8300284149
H       -0.3741178525   -1.6288673055    0.5457053715
H        0.2102062328   -1.3708113635    2.9374635981
O        2.5623336220   -0.6973713870    3.8655834004
C        3.0271774473   -1.7496860427    4.6027939375
C        3.3371165251   -1.4860852813    5.9351518287
C        3.8104539990   -2.4980771564    6.7454810838
C        3.9806211269   -3.7783402673    6.2423116747
C        3.6722681002   -4.0378483039    4.9192624050
C        3.1964801378   -3.0325020469    4.0955454075
H        2.9569689469   -3.2412550871    3.0627142011
H        3.8009901594   -5.0321994047    4.5174540971
H        4.3511363508   -4.5675651965    6.8786248837
H        4.0486560749   -2.2861589029    7.7773064547
H        3.1986777676   -0.4841631739    6.3102179676
H        4.2365721683   -0.4728535289    1.8645547026
H        3.6602740196   -0.7289668209   -0.5291098944
23   
torsion grid (-75,)
H        1.4384823895   -1.2343603168   -1.2155933143
C        1.6339162588   -1.1576238100   -0.1565571029
C        2.9317319481   -0.9932499133    0.2985669575
C        3.1873825632   -0.8927257240    1.6537699941
C        2.1355825849   -0.9660103825    2.5593000623
C        0.8328511037   -1.1244807168    2.1061470087
C        0.5874965430   -1.2195446265    0.7478287121
H       -0.4257261589   -1.3443173537    0.3958534373
H        0.0276636872   -1.1684199754    2.8236468635
O        2.3599188786   -0.7863619076    3.9100945659
C        2.9515837649   -1.7920093952    4.6215555191
C        3.2879476159   -1.5039624128    5.9424452944
C        3.8727659615   -2.4734802855    6.7317270539
C        4.1305817443   -3.7345578005    6.2177318929
C        3.7930927900   -4.0194456763    4.9069960855
C        3.2043837538   -3.0573549332    4.1051121786
H        2.9367435838   -3.2879308216    3.0838963886
H        3.9859027936   -5.0005560604    4.4983987958
H        4.5899686075   -4.4900968116    6.8367190043
H        4.1308960235   -2.2428197426    7.7546813227
H        3.0802373533   -0.5172880780    6.3259800136
H        4.1946199395   -0.7633193648    2.0219507660
H        3.7495720520   -0.9384165849   -0.4045190400
23   
torsion grid (-60,)
H        1.5331944365   -1.1254421370   -1.2396535499
C        1.6693715182   -1.0988710241   -0.1690361275
C        2.9462655024   -1.0877196146    0.3676255842
C        3.1278916672   -1.0515784318    1.7375720288
C        2.0202618173   -1.0403511385    2.5785525088
C        0.7385724030   -1.0400989694    2.0428878686
C        0.5688446900   -1.0699218380    0.6704998289
H       -0.4283989036   -1.0728263882    0.2562913737
H       -0.1086450513   -1.0135395660    2.7107776689
O        2.1594855016   -0.9173267980    3.9427086888
C        2.8742551736   -1.8559525836    4.6341462921
C        3.2461239031   -1.5207392939    5.9339683389
C        3.9377822631   -2.4297573976    6.7092872581
C        4.2680581562   -3.6758489832    6.2009285419
C        3.8921613042   -4.0092486387    4.9119122361
C        3.1957234678   -3.1090450746    4.1252150735
H        2.8948940742   -3.3791354684    3.1231565406
H        4.1379471574   -4.9811639809    4.5099138959
H        4.8121002428   -4.3834612569    6.8078281258
H        4.2236417117   -2.1625535771    7.7158038951
H        2.9803195880   -0.5465623081    6.3137239893
H        4.1200674258   -1.0376438524    2.1652382376
H        3.8076777324   -1.0995443728   -0.2836158387
23   
torsion grid (-45,)
H        1.6265854331   -0.9941817767   -1.2505872908
C        1.7095583885   -1.0258513292   -0.1747285936
C        2.9511817911   -1.1589605078    0.4238619942
C        3.0648385358   -1.2001397592    1.8011625942
C        1.9216482188   -1.1192139658    2.5896811277
C        0.6751735434   -0.9725229197    1.9910922055
C        0.5751019636   -0.9265680638    0.6130937988
H       -0.3953621608   -0.8157109079    0.1527358616
H       -0.1987940907   -0.8934386216    2.6189103862
O        1.9774338566   -1.0773966080    3.9604567716
C        2.8004917724   -1.9338002600    4.6409067500
C        3.2096672871   -1.5344881093    5.9103384849
C        3.9957187901   -2.3723776916    6.6769996011
C        4.3824561162   -3.6098391660    6.1888437777
C        3.9665107142   -4.0098368079    4.9308433960
C        3.1756153681   -3.1817398327    4.1550973827
H        2.8409460461   -3.5032679109    3.1793638180
H        4.2539550805   -4.9777671590    4.5473174759
H        5.0007584382   -4.2610234041    6.7877885366
H        4.3110582119   -2.0553085326    7.6599404138
H        2.8983448414   -0.5682502410    6.2756341626
H        4.0333863913   -1.2926443388    2.2712367223
H        3.8413212447   -1.2240047803   -0.1842569176
23   
torsion grid (-30,)
H        1.7053644076   -0.8301412741   -1.2437906585
C        1.7422512523   -0.9318240996   -0.1698535593
C        2.9444090400   -1.2002796189    0.4613987875
C        3.0023334008   -1.3349700702    1.8367392460
C        1.8416109538   -1.2050745085    2.5918023759
C        0.6342452309   -0.9235886485    1.9583153035
C        0.5894327730   -0.7872171152    0.5845519216
H       -0.3513643721   -0.5707183545    0.1006012144
H       -0.2535348319   -0.8130331063    2.5612333186
O        1.8198324502   -1.2691531579    3.9594192675
C        2.7351061854   -2.0303559421    4.6392950244
C        3.1673463135   -1.5539085924    5.8730476376
C        4.0355728370   -2.3089702245    6.6382447250
C        4.4800811172   -3.5389778138    6.1824547595
C        4.0394654916   -4.0180321404    4.9605789354
C        3.1666427387   -3.2736002079    4.1884929053
H        2.8100619711   -3.6552701144    3.2427181787
H        4.3713262980   -4.9822943060    4.6047780584
H        5.1624236661   -4.1246972062    6.7795224874
H        4.3694138843   -1.9325759299    7.5937364194
H        2.8097042501   -0.5947767102    6.2140162936
H        3.9458464081   -1.5269063810    2.3268046517
H        3.8500243162   -1.3019671712   -0.1183748342
23   
torsion grid (-15,)
H        1.7687352040   -0.6419407394   -1.2160181931
C        1.7694744794   -0.8237626109   -0.1521018930
C        2.9314691207   -1.2208227453    0.4850520180
C        2.9434627946   -1.4617061092    1.8476556812
C        1.7763225379   -1.3006162907    2.5858365572
C        0.6073420716   -0.8938799781    1.9457845492
C        0.6089287446   -0.6557294366    0.5860511606
H       -0.3021166879   -0.3408663467    0.0992181216
H       -0.2872678249   -0.7686691104    2.5355676399
O        1.6871667386   -1.4872289960    3.9376186215
C        2.6775745770   -2.1426928733    4.6278190019
C        3.1179256464   -1.5757296094    5.8182332475
C        4.0572764149   -2.2352921475    6.5891246181
C        4.5628744544   -3.4576696277    6.1800192952
C        4.1135685871   -4.0275215644    5.0004859283
C        3.1702726185   -3.3796940805    4.2244456611
H        2.8049306151   -3.8297703765    3.3127406751
H        4.4942766876   -4.9871359677    4.6831934843
H        5.3000037090   -3.9683749349    6.7809781212
H        4.3979252133   -1.7896126244    7.5118378354
H        2.7125255282   -0.6236486462    6.1239569601
H        3.8613146799   -1.7508824031    2.3382036117
H        3.8436098717   -1.3450854752   -0.0799702439
23   
torsion grid (0,)
H        1.8440950601   -0.4369430657   -1.1629337464
C        1.8086066871   -0.7046864318   -0.1179956503
C        2.9267287278   -1.2322756382    0.5014893039
C        2.8933780583   -1.5853781075    1.8395981671
C        1.7272255550   -1.3988384477    2.5721455487
C        0.6006321975   -0.8656586190    1.9477038598
C        0.6454172286   -0.5196189052    0.6128044072
H       -0.2324341373   -0.1053103835    0.1394373337
H       -0.2963922726   -0.7317746729    2.5317759894
O        1.5787985326   -1.7170765742    3.8935702907
C        2.6223558989   -2.2650085450    4.6063642474
C        3.0739210793   -1.5915109737    5.7344289296
C        4.0673849992   -2.1504237295    6.5176613035
C        4.6147541266   -3.3764905009    6.1796176678
C        4.1572544769   -4.0521870699    5.0607732801
C        3.1602430648   -3.5039366476    4.2747646806
H        2.7868415986   -4.0323930535    3.4097179824
H        4.5738900298   -5.0138041275    4.7996175927
H        5.3933493415   -3.8082058651    6.7902159841
H        4.4170070646   -1.6238543783    7.3932184923
H        2.6356479710   -0.6376289204    5.9846021323
H        3.7793532137   -1.9793942821    2.3151543780
H        3.8395372798   -1.3759337547   -0.0579997154
23   
torsion grid (15,)
H        1.8778641710    0.5110262828   -0.7318858675
C        1.8314532888   -0.1046629591    0.1534147608
C        2.9960503355   -0.5300479016    0.7670788332
C        2.9491780108   -1.3154982890    1.9054003324
C        1.7184567079   -1.6837833968    2.4369700175
C        0.5448439553   -1.2618007239    1.8155471378
C        0.6057131529   -0.4794798479    0.6799009708
H       -0.3091914495   -0.1572474083    0.2052762483
H       -0.4006385776   -1.5623242536    2.2393755810
O        1.5616561253   -2.4767521522    3.5400320375
C        2.6132853564   -2.7248344845    4.3881123529
C        3.4037015716   -1.7058392045    4.9099611847
C        4.4003658862   -2.0097103011    5.8189033455
C        4.6096657600   -3.3186663055    6.2194841608
C        3.8093126440   -4.3287584717    5.7130108221
C        2.8134323530   -4.0377189390    4.7992950401
H        2.1797616847   -4.8127382146    4.3966331897
H        3.9625491294   -5.3503282585    6.0276005531
H        5.3899577826   -3.5491370037    6.9289591168
H        5.0125664881   -1.2158700704    6.2207420270
H        3.2265792678   -0.6833724960    4.6092097895
H        3.8646464438   -1.6594619303    2.3639997041
H        3.9563856935   -0.2513263643    0.3587111212
23   
torsion grid (30,)
H        1.8507458262    0.6678962607   -0.6158813238
C        1.8215252656   -0.0148862573    0.2195709452
C        2.9968055308   -0.5398941644    0.7283390253
C        2.9709489663   -1.4135810957    1.8002560213
C        1.7541422265   -1.7636728425    2.3757197615
C        0.5710680260   -1.2448465097    1.8566867394
C        0.6088502406   -0.3763056218    0.7833144873
H       -0.3132310648    0.0231610961    0.3878649124
H       -0.3644508105   -1.5378784792    2.3070439531
O        1.6350649546   -2.6624066386    3.4018455627
C        2.6442717663   -2.8192894437    4.3161547545
C        3.3928047561   -1.7529798807    4.8037389359
C        4.3490573489   -1.9766734133    5.7772355014
C        4.5607651094   -3.2507921332    6.2756983441
C        3.8017744205   -4.3079804209    5.8017757683
C        2.8467026128   -4.0982384280    4.8254842775
H        2.2452577244   -4.9099412574    4.4465974257
H        3.9562494359   -5.3031388976    6.1914985872
H        5.3099923440   -3.4178597373    7.0345906850
H        4.9278607768   -1.1453075150    6.1518123698
H        3.2165208642   -0.7556132297    4.4274318484
H        3.8893152421   -1.8350571946    2.1825458221
H        3.9455542188   -0.2730468901    0.2864080550
23   
torsion grid (45,)
H        1.8165621730    0.8010781118   -0.4997490556
C        1.8138170847    0.0590663797    0.2842977038
C        2.9972160026   -0.5465138825    0.6723025311
C        3.0018014710   -1.4977495166    1.6755211028
C        1.8099839870   -1.8390651461    2.3067590222
C        0.6187982151   -1.2416321382    1.9100710791
C        0.6262662473   -0.2961856564    0.9015145527
H       -0.3007883109    0.1675660607    0.5989724270
H       -0.2983977790   -1.5317716452    2.3987694048
O        1.7398390305   -2.8297613475    3.2543646565
C        2.6832652642   -2.9007765900    4.2439544487
C        3.3799578819   -1.7940983030    4.7172198733
C        4.2772066591   -1.9441768781    5.7590393951
C        4.4831977819   -3.1839144264    6.3389498735
C        3.7773584852   -4.2820939211    5.8755376302
C        2.8816653745   -4.1465196598    4.8328283410
H        2.3227677444   -4.9910165256    4.4608170642
H        3.9276099772   -5.2519387656    6.3260376910
H        5.1861667433   -3.2927726148    7.1507896700
H        4.8148522068   -1.0805573581    6.1218724898
H        3.2116180694   -0.8220258786    4.2765375284
H        3.9217808291   -1.9801330712    1.9730899530
H        3.9250506433   -0.2833399213    0.1862350765
23   
torsion grid (60,)
H        1.7587796127    0.9088689909   -0.3888467380
C        1.7944569978    0.1171850108    0.3442788577
C        2.9827223744   -0.5525647103    0.5853515727
C        3.0343824323   -1.5684966724    1.5214148719
C        1.8884451866   -1.9080995121    2.2326381312
C        0.6928682405   -1.2457064116    1.9852587801
C        0.6515896152   -0.2350082917    1.0417722536
H       -0.2781363318    0.2808094428    0.8531712414
H       -0.1900567424   -1.5345528706    2.5344597811
O        1.8801281030   -2.9698738516    3.1093904983
C        2.7358442628   -2.9680013770    4.1762255272
C        3.3823496082   -1.8294648100    4.6435968620
C        4.2034027368   -1.9154678066    5.7539050128
C        4.3842782843   -3.1222211038    6.4060364557
C        3.7310552345   -4.2535427380    5.9440001430
C        2.9116639339   -4.1824259611    4.8350699026
H        2.3952244294   -5.0531599188    4.4623628459
H        3.8630778380   -5.1990485053    6.4487671258
H        5.0272614753   -3.1808511257    7.2710196948
H        4.7018881974   -1.0264910402    6.1114822238
H        3.2364674825   -0.8820156150    4.1450172652
H        3.9555193736   -2.0997642024    1.7130548248
H        3.8743834367   -0.2884396140    0.0363053258
23   
torsion grid (75,)
H        1.6928643579    0.9879800935   -0.2870920797
C        1.7741186229    0.1567857788    0.3971472131
C        2.9518394371   -0.5684950911    0.4708150424
C        3.0603164370   -1.6347906921    1.3445032317
C        1.9833399772   -1.9713183084    2.1559633731
C        0.7994491928   -1.2500695319    2.0804133754
C        0.6998876540   -0.1876220668    1.1997050135
H       -0.2207130221    0.3738707572    1.1424113051
H       -0.0299739939   -1.5324324218    2.7108333680
O        2.0440034588   -3.0811773316    2.9758567201
C        2.7958388670   -3.0200303647    4.1155164109
C        3.3795589716   -1.8525175057    4.5930133708
C        4.1103426061   -1.8832199721    5.7678356407
C        4.2639356720   -3.0635140066    6.4725317607
C        3.6766242050   -4.2250977994    5.9964803690
C        2.9468887766   -4.2093193592    4.8249764969
H        2.4831230059   -5.1040306467    4.4400963045
H        3.7895327431   -5.1509775252    6.5407858526
H        4.8357324422   -3.0791711826    7.3878764587
H        4.5605106493   -0.9716838585    6.1327245326
H        3.2579388553   -0.9261011838    4.0502013610
H        3.9727601285   -2.2090525857    1.4112030040
H        3.7896767371   -0.3063478895   -0.1580656656
23   
torsion grid (90,)
H        1.6202710301    1.0333784513   -0.2058801817
C        1.7507501154    0.1760917574    0.4372852800
C        2.8974668513   -0.5938916722    0.3379573413
C        3.0719439556   -1.6929280997    1.1595777730
C        2.0886537509   -2.0212854663    2.0836935622
C        0.9377703502   -1.2510767524    2.1864854360
C        0.7724096845   -0.1541132192    1.3600315042
H       -0.1228354327    0.4446588031    1.4388768990
H        0.1846572577   -1.5216389131    2.9113250696
O        2.2262352570   -3.1570691425    2.8609273579
C        2.8632166337   -3.0525850880    4.0651229258
C        3.3724503640   -1.8608715881    4.5672293083
C        4.0019008151   -1.8507169624    5.7997831693
C        4.1286439603   -3.0145599590    6.5361453266
C        3.6194520093   -4.2014618595    6.0330027932
C        2.9896353698   -4.2261055840    4.8052468748
H        2.5874590828   -5.1406154462    4.3982359414
H        3.7138856473   -5.1149713296    6.6012414193
H        4.6208492058   -2.9985249221    7.4966078238
H        4.3950786790   -0.9207030166    6.1834635060
H        3.2758800606   -0.9484127893    3.9963876756
H        3.9607243044   -2.3026826374    1.0945337617
H        3.6610968295   -0.3382472581   -0.3815481079
23   
torsion grid (105,)
H        1.5212135226    1.0429006743   -0.1644121531
C        1.7130775588    0.1764761008    0.4505535882
C        2.8155973242   -0.6223275739    0.1989201775
C        3.0676463559   -1.7310529237    0.9872698176
C        2.2020274400   -2.0457182430    2.0261434368
C        1.0968081660   -1.2441945992    2.2847557258
C        0.8562780313   -0.1362793192    1.4928553285
H       -0.0039655570    0.4854369712    1.6918317947
H        0.4381889760   -1.4984166679    3.1022157439
O        2.4263777942   -3.1873780117    2.7715581355
C        2.9413489999   -3.0609525059    4.0310505525
C        3.3804275844   -1.8571081570    4.5692526940
C        3.9014634674   -1.8297349059    5.8511236677
C        3.9910039468   -2.9884524646    6.6010336650
C        3.5562030816   -4.1882633799    6.0602818459
C        3.0328685720   -4.2296207246    4.7838618270
H        2.6896810005   -5.1544458679    4.3472164294
H        3.6237495821   -5.0983537574    6.6377502891
H        4.3982522280   -2.9586449728    7.6001772994
H        4.2409256046   -0.8903371942    6.2622340242
H        3.3182252262   -0.9492459054    3.9865923690
H        3.9231719874   -2.3634412260    0.8045837566
H        3.4870248889   -0.3791780398   -0.6111175557
23   
torsion grid (120,)
H        0.5082998931    0.6518764839    0.0067661141
C        1.1589829628   -0.0164194256    0.5503874782
C        2.5228116406    0.2189744038    0.5865690152
C        3.3592926093   -0.6314506478    1.2872456702
C        2.8268274861   -1.7329180638    1.9443525737
C        1.4572929034   -1.9713975402    1.9114344005
C        0.6299427639   -1.1117007525    1.2131150469
H       -0.4331596205   -1.2996985295    1.1859764980
H        1.0552055308   -2.8284492761    2.4320532018
O        3.6850261841   -2.6005602843    2.5848756586
C        3.5548326975   -2.7990483926    3.9314952396
C        2.8161810022   -1.9686687834    4.7665265397
C        2.7691535575   -2.2302445265    6.1244617206
C        3.4524915371   -3.3073553575    6.6599899596
C        4.1951966845   -4.1283097195    5.8265256088
C        4.2481547027   -3.8807921063    4.4694201684
H        4.8217712100   -4.5093520826    3.8063308385
H        4.7347515681   -4.9695133282    6.2357564594
H        3.4097725338   -3.5047447907    7.7203040563
H        2.1936033190   -1.5802037407    6.7669785545
H        2.2881834575   -1.1199578631    4.3562203681
H        4.4244062192   -0.4618669625    1.3252724154
H        2.9385749387    1.0734685919    0.0736748732
23   
torsion grid (135,)
H        0.4547602562    0.5261031313   -0.0814336768
C        1.1387875319   -0.0770957080    0.4961558068
C        2.5008793178    0.1645962529    0.4363192798
C        3.3792785426   -0.6016670128    1.1800623753
C        2.8923429132   -1.6256446709    1.9840033415
C        1.5250550793   -1.8753732344    2.0407255860
C        0.6561727300   -1.0984951751    1.2973348023
H       -0.4045960166   -1.2962460329    1.3425246310
H        1.1543273335   -2.6778146068    2.6621913285
O        3.8036292289   -2.4049459267    2.6546923382
C        3.5997517459   -2.7132526815    3.9725151242
C        2.8374815665   -1.9318332981    4.8339482639
C        2.7263112017   -2.2899909573    6.1653590290
C        3.3709986637   -3.4148776034    6.6494123549
C        4.1407841629   -4.1842185058    5.7922402943
C        4.2566487253   -3.8400679172    4.4597489547
H        4.8530524172   -4.4272755240    3.7790076516
H        4.6516802154   -5.0606470901    6.1623747254
H        3.2779949077   -3.6879947890    7.6895288134
H        2.1329201500   -1.6783254704    6.8289229622
H        2.3430591884   -1.0453278046    4.4636993721
H        4.4434534236   -0.4269303812    1.1438702836
H        2.8828224966    0.9589923122   -0.1874711824
23   
torsion grid (150,)
H        0.4197906471    0.3735029267   -0.1931079807
C        1.1267976482   -0.1548902265    0.4282988982
C        2.4848999538    0.0850299170    0.3003967082
C        3.3909172042   -0.5860188481    1.0990998930
C        2.9389220423   -1.5091387711    2.0372280141
C        1.5767091672   -1.7649293310    2.1552575593
C        0.6800878353   -1.0831071895    1.3530664699
H       -0.3763477950   -1.2858056026    1.4497147984
H        1.2266862902   -2.5003916801    2.8651578710
O        3.8921061415   -2.1877205268    2.7502032309
C        3.6341700360   -2.6131410664    4.0271788782
C        2.8597739138   -1.8868716342    4.9260194433
C        2.6986620247   -2.3481716913    6.2195976581
C        3.3080282255   -3.5218269411    6.6294164300
C        4.0926037219   -4.2343080066    5.7378213893
C        4.2573098517   -3.7863740188    4.4410482472
H        4.8666750201   -4.3283079956    3.7346357585
H        4.5768002518   -5.1470056865    6.0518595395
H        3.1765254970   -3.8760638955    7.6405470240
H        2.0960408562   -1.7801957413    6.9129654491
H        2.3963501617   -0.9626565671    4.6122031329
H        4.4520649034   -0.4121287219    1.0107271862
H        2.8420221833    0.8021886044   -0.4236031393
23   
torsion grid (165,)
H        0.4083566671    0.1942865707   -0.3167475479
C        1.1261326104   -0.2513460671    0.3550046731
C        2.4816227759   -0.0226806192    0.1811931142
C        3.4006734778   -0.5887935649    1.0419021514
C        2.9672763872   -1.3884624249    2.0971673319
C        1.6092483673   -1.6397127273    2.2584318627
C        0.6988753999   -1.0644154244    1.3896877030
H       -0.3544965882   -1.2624863308    1.5231273432
H        1.2675641797   -2.2915119267    3.0491552500
O        3.9473169337   -1.9535755070    2.8658803092
C        3.6559894275   -2.4983056677    4.0918909399
C        2.8783882261   -1.8384648020    5.0383527908
C        2.6821503566   -2.4078666107    6.2829160717
C        3.2623980985   -3.6255477745    6.5964344313
C        4.0514317258   -4.2718475672    5.6599378260
C        4.2497443836   -3.7144172268    4.4104336485
H        4.8635039742   -4.2043594752    3.6705584394
H        4.5131376550   -5.2177907926    5.9009577392
H        3.1048194088   -4.0653229562    7.5696017430
H        2.0767570857   -1.8920692184    7.0136434096
H        2.4410731100   -0.8803242645    4.7975956366
H        4.4597371965   -0.4234396391    0.9196168963
H        2.8258949225    0.6001213227   -0.6310093037
23   
torsion grid (180,)
H        0.4230267474   -0.0206792590   -0.4422618348
C        1.1408626123   -0.3720038944    0.2831696928
C        2.4954124837   -0.1519627962    0.0894894461
C        3.4137108462   -0.6005182100    1.0166617129
C        2.9830945750   -1.2650261552    2.1639482001
C        1.6271283943   -1.5095098381    2.3467181481
C        0.7166625520   -1.0556770495    1.4079784916
H       -0.3353529272   -1.2473982200    1.5604764102
H        1.2831501090   -2.0629322091    3.2079631551
O        3.9711490845   -1.6993863571    3.0031612642
C        3.6650473437   -2.3680316539    4.1665361715
C        2.8957205813   -1.7841777916    5.1675306985
C        2.6767433191   -2.4677074546    6.3495266322
C        3.2266330900   -3.7237340139    6.5438409734
C        4.0063948180   -4.2954472619    5.5527775686
C        4.2268350039   -3.6232798966    4.3644831604
H        4.8331416343   -4.0541685056    3.5826586953
H        4.4431875539   -5.2715461634    5.7028042951
H        3.0522820685   -4.2528155817    7.4685585319
H        2.0776808963   -2.0126407365    7.1244405565
H        2.4839330100   -0.7967408606    5.0171936963
H        4.4718854106   -0.4403782445    0.8807322139
H        2.8392665750    0.3674294597   -0.7926554205
