15   

H        1.8844685695   -1.1976308771   -1.1372496833
C        1.8989092723   -1.1492933908   -0.0516389327
C        2.9606142227   -1.7134389503    0.6606737539
C        2.9826922312   -1.6489255526    2.0589324364
C        1.9376846624   -1.0274686135    2.7676417471
C        0.8787467552   -0.4515290810    2.0340698366
C        0.8609175517   -0.5151743816    0.6357868310
H        0.0425510285   -0.0643450575    0.0808247807
H        0.0688341256    0.0723141350    2.5336548484
C        1.9680883683   -0.9741836753    4.2380957310
O        2.9986688411   -1.1458666493    4.8281181973
O        0.8176975165   -0.7689074310    4.9117198680
H        0.0392111191   -0.8750488027    4.3499162352
H        3.8160514029   -2.0886388502    2.6033940708
H        3.7727172175   -2.2017423547    0.1292731770
15   

H        1.8836229868   -1.2633481564   -1.1392251192
C        1.8974657357   -1.2021904186   -0.0542689100
C        2.9496173352   -1.7735855030    0.6667260978
C        2.9715975318   -1.6913584682    2.0642472037
C        1.9362109402   -1.0430944974    2.7630069285
C        0.8869649499   -0.4612228248    2.0206238339
C        0.8685479054   -0.5434832951    0.6235137197
H        0.0575848659   -0.0868465587    0.0624731955
H        0.0863263113    0.0821718882    2.5149714885
C        1.9669687079   -0.9570535557    4.2318023284
O        2.9799005709   -1.1865343014    4.8318113293
O        0.8201727735   -0.6788308861    4.8963827097
H        0.0378198781   -0.9607343381    4.4072733019
H        3.7987558247   -2.1347804930    2.6150290005
H        3.7551241308   -2.2799760607    0.1423164435
15   

H        1.8957807606   -1.3128339520   -1.1453440035
C        1.9056786226   -1.2422541856   -0.0609426896
C        2.9499225598   -1.8158996210    0.6699590034
C        2.9671333153   -1.7206900242    2.0669095500
C        1.9351020194   -1.0555712094    2.7548057450
C        0.8935131685   -0.4732428979    2.0023436233
C        0.8793748073   -0.5689659538    0.6062272269
H        0.0739610845   -0.1109999780    0.0383551943
H        0.0954983282    0.0801274524    2.4903171377
C        1.9609905227   -0.9456727612    4.2222483695
O        2.9519553600   -1.2277853219    4.8353878664
O        0.8187513595   -0.5924102168    4.8733903761
H        0.0425735843   -1.0278828458    4.5047395272
H        3.7890790455   -2.1646137050    2.6249189008
H        3.7534686922   -2.3332774243    0.1534031115
15   

H        1.9219394672   -1.3340163884   -1.1566023087
C        1.9243676304   -1.2606612096   -0.0723759345
C        2.9607307193   -1.8367004277    0.6679869200
C        2.9681467370   -1.7376786149    2.0649195001
C        1.9345402192   -1.0649174969    2.7430543997
C        0.9004773079   -0.4819059650    1.9809994052
C        0.8957051245   -0.5817922499    0.5852602998
H        0.0953563717   -0.1229581355    0.0110232819
H        0.0999158595    0.0731596025    2.4631242225
C        1.9493342915   -0.9460609383    4.2102323805
O        2.9158055587   -1.2749738308    4.8379288803
O        0.8161862423   -0.5120029357    4.8460307092
H        0.0570692655   -1.0667189309    4.6424410287
H        3.7843846268   -2.1830475089    2.6299618532
H        3.7658762473   -2.3586128807    0.1586239720
15   

H        1.9615312194   -1.3222740359   -1.1733952653
C        1.9527325393   -1.2534789283   -0.0889421742
C        2.9804414424   -1.8338278782    0.6601747342
C        2.9726963743   -1.7412288386    2.0576604985
C        1.9329826403   -1.0693744707    2.7274470721
C        0.9073247814   -0.4833618753    1.9565350616
C        0.9173197979   -0.5771287485    0.5604987731
H        0.1222910171   -0.1164522561   -0.0195423580
H        0.0998035600    0.0659989016    2.4336950487
C        1.9291469593   -0.9584922434    4.1957048625
O        2.8728577852   -1.3252648400    4.8365564315
O        0.8133844471   -0.4410311361    4.8144917730
H        0.0849205742   -1.0676986832    4.8165559905
H        3.7819933626   -2.1905284387    2.6293731486
H        3.7903362950   -2.3544653736    0.1571719574
15   

H        2.0125946016   -1.2861961077   -1.1912395999
C        1.9888977342   -1.2285499201   -0.1063981411
C        3.0062250818   -1.8163217226    0.6510967761
C        2.9782526946   -1.7392353570    2.0493563814
C        1.9291387821   -1.0743151199    2.7115954015
C        0.9137689495   -0.4817589466    1.9320978108
C        0.9435578798   -0.5604443679    0.5354768652
H        0.1549992418   -0.0958583131   -0.0501673338
H        0.0963179510    0.0570128077    2.4044516690
C        1.8997871122   -0.9847514010    4.1816005266
O        2.8238530391   -1.3846174627    4.8327035659
O        0.8135777641   -0.3840208727    4.7813433930
H        0.1343895329   -1.0226726858    5.0130015120
H        3.7788950083   -2.1956115044    2.6274393957
H        3.8232149293   -2.3315020168    0.1540822614
15   

H        2.0645602227   -1.2496937028   -1.2060726647
C        2.0245093917   -1.2044562024   -0.1211572925
C        3.0314355533   -1.7987883731    0.6450769438
C        2.9814663073   -1.7388155750    2.0436448965
C        1.9210923290   -1.0833761367    2.6976813120
C        0.9160382936   -0.4850263122    1.9090835392
C        0.9674485485   -0.5470356844    0.5123165214
H        0.1854718961   -0.0791076603   -0.0793927741
H        0.0874656441    0.0417856168    2.3755825315
C        1.8644648008   -1.0160943889    4.1688027370
O        2.7728100942   -1.4446641856    4.8270544181
O        0.8118864082   -0.3497796604    4.7476219735
H        0.2118289264   -0.9483311713    5.2015783603
H        3.7735471064   -2.2016115341    2.6282123638
H        3.8569320168   -2.3066015935    0.1546756021
15   

H        2.1053495644   -1.2294637154   -1.2160883595
C        2.0504511871   -1.1937278258   -0.1314936922
C        3.0483717710   -1.7919697384    0.6434463859
C        2.9786378252   -1.7450357031    2.0417397675
C        1.9078854636   -1.0975503079    2.6870005489
C        0.9116843167   -0.4960905605    1.8893573247
C        0.9824362048   -0.5456354608    0.4929995306
H        0.2062013621   -0.0761698103   -0.1049723375
H        0.0732593219    0.0208472680    2.3493654132
C        1.8283881370   -1.0446122746    4.1582436765
O        2.7179718929   -1.5063816611    4.8231421996
O        0.8069430448   -0.3321011349    4.7179690519
H        0.3143682362   -0.8555188143    5.3592646619
H        3.7635265149   -2.2116933835    2.6327591613
H        3.8819269219   -2.2932086229    0.1600384347
15   

H        2.1393066908   -1.2163240615   -1.2221978934
C        2.0720638587   -1.1861280997   -0.1381460245
C        3.0669051566   -1.7784308751    0.6453496199
C        2.9810007613   -1.7388096255    2.0430408156
C        1.8968851234   -1.1046098342    2.6790738732
C        0.9034440492   -0.5100344304    1.8727684905
C        0.9905415143   -0.5518530641    0.4771421571
H        0.2159252194   -0.0878099430   -0.1271077088
H        0.0536594185   -0.0058199514    2.3261929278
C        1.7990648920   -1.0595077510    4.1496555281
O        2.6824298442   -1.5240885205    4.8235997111
O        0.7732368745   -0.3583201056    4.6950982431
H        0.4261107457   -0.8002211738    5.4800723659
H        3.7632269289   -2.2013092125    2.6407151990
H        3.9103554732   -2.2697332799    0.1690123315
15   

H        2.1595701592   -1.2036560823   -1.2262450527
C        2.0831012782   -1.1790473456   -0.1426724563
C        3.0753679054   -1.7683026145    0.6464221345
C        2.9773380865   -1.7361171023    2.0435359155
C        1.8836327126   -1.1122891948    2.6732698779
C        0.8924912846   -0.5214889122    1.8614180144
C        0.9917335785   -0.5557295151    0.4664137278
H        0.2184820035   -0.0948916076   -0.1420058666
H        0.0345247774   -0.0273054341    2.3106066783
C        1.7732870249   -1.0739648113    4.1431193128
O        2.6438235577   -1.5544947917    4.8245015410
O        0.7398915337   -0.3917709077    4.6809002893
H        0.5372040601   -0.7272520831    5.5655056809
H        3.7572642666   -2.1966514123    2.6456527440
H        3.9259887542   -2.2517688105    0.1748665385
15   

H        2.1788424545   -1.1893286417   -1.2286901894
C        2.0951091307   -1.1695028876   -0.1455618070
C        3.0878764865   -1.7521079699    0.6479057372
C        2.9802504463   -1.7263382573    2.0444715846
C        1.8762046529   -1.1159090081    2.6690307338
C        0.8843113874   -0.5323651231    1.8529561599
C        0.9933539248   -0.5597390432    0.4585571684
H        0.2192176693   -0.1047749487   -0.1531440360
H        0.0177163983   -0.0502011128    2.2987511047
C        1.7556122556   -1.0841983111    4.1380086188
O        2.6168413565   -1.5725990153    4.8267423208
O        0.6983528723   -0.4453050078    4.6712337923
H        0.6316876847   -0.6531752277    5.6154516743
H        3.7600421868   -2.1822807596    2.6502121812
H        3.9460124680   -2.2258553893    0.1801334881
15   

H        2.1947095351   -1.1718838240   -1.2287385036
C        2.1059433598   -1.1574056375   -0.1459279950
C        3.1015683443   -1.7322142418    0.6496835562
C        2.9872630397   -1.7136297857    2.0458507218
C        1.8733529196   -1.1187092386    2.6677265056
C        0.8783353889   -0.5435164973    1.8495569148
C        0.9943547813   -0.5631266363    0.4556078578
H        0.2175714556   -0.1149023467   -0.1577147659
H        0.0034072126   -0.0748168201    2.2934742175
C        1.7453914501   -1.0948628721    4.1361247707
O        2.6008503096   -1.5892390423    4.8282279659
O        0.6573532767   -0.5109993448    4.6661296362
H        0.6999540803   -0.5653297355    5.6333404788
H        3.7687562510   -2.1642676667    2.6533533201
H        3.9667852716   -2.1948493840    0.1838448029
15   

H        2.2010429105   -1.1490930075   -1.2274088478
C        2.1104405015   -1.1417153885   -0.1446770256
C        3.1112522264   -1.7097419106    0.6492550653
C        2.9944361276   -1.7006264277    2.0452903394
C        1.8725470665   -1.1225332664    2.6688193442
C        0.8720172295   -0.5546410754    1.8522459764
C        0.9908850149   -0.5642097865    0.4584141800
H        0.2097258103   -0.1219731563   -0.1536925876
H       -0.0099423771   -0.1003211339    2.2971536130
C        1.7418442730   -1.1091455964    4.1372136933
O        2.5956126918   -1.6110677238    4.8255151724
O        0.6233657383   -0.5811850372    4.6669061589
H        0.7381070498   -0.4603452269    5.6215966941
H        3.7795997159   -2.1468337883    2.6513410985
H        3.9821761936   -2.1603145345    0.1822212159
15   

H        2.2028104620   -1.1252924358   -1.2237479208
C        2.1120300745   -1.1266194947   -0.1410014988
C        3.1183254113   -1.6904503387    0.6489032853
C        3.0011931718   -1.6928828866    2.0449143180
C        1.8733449581   -1.1309309214    2.6726769975
C        0.8669568108   -0.5677624013    1.8599445992
C        0.9864156902   -0.5653658525    0.4661073559
H        0.2006664414   -0.1271776084   -0.1430339804
H       -0.0206586187   -0.1273106504    2.3074213267
C        1.7424952170   -1.1297652323    4.1413428617
O        2.5948125588   -1.6433128635    4.8216728059
O        0.5999815756   -0.6453155250    4.6728259354
H        0.7516274357   -0.3386777537    5.5778857632
H        3.7904164819   -2.1365678394    2.6475681153
H        3.9935643605   -2.1293019194    0.1787691020
15   

H        2.2026052497   -1.1016254206   -1.2185441102
C        2.1120077684   -1.1137497868   -0.1358405746
C        3.1223930068   -1.6778800811    0.6485547015
C        3.0054239084   -1.6945504055    2.0444524237
C        1.8737614560   -1.1465146794    2.6777382186
C        0.8628166825   -0.5836632797    1.8704201098
C        0.9822227329   -0.5669363166    0.4766590167
H        0.1929314636   -0.1294902076   -0.1284397607
H       -0.0290223217   -0.1556597915    2.3214147773
C        1.7438414781   -1.1595802722    4.1464666813
O        2.5896860048   -1.6921495693    4.8182448066
O        0.5891282398   -0.6919400859    4.6844710685
H        0.7563898927   -0.2017431636    5.4991409894
H        3.7976467936   -2.1389308988    2.6427058631
H        4.0005547098   -2.1062785881    0.1742231259
15   

H        2.1954254208   -1.0662226872   -1.2108885403
C        2.1067191128   -1.0917544060   -0.1282455732
C        3.1240073225   -1.6548956687    0.6478134651
C        3.0094715928   -1.6891526345    2.0435204601
C        1.8734534949   -1.1599456284    2.6850126481
C        0.8549739803   -0.5988615707    1.8860824615
C        0.9722070373   -0.5641720947    0.4924079417
H        0.1772926434   -0.1285598748   -0.1066429645
H       -0.0417413576   -0.1875611572    2.3427248550
C        1.7466703787   -1.1927006338    4.1535260743
O        2.5937320746   -1.7315294789    4.8159687824
O        0.5843146081   -0.7355471359    4.7051185344
H        0.7467312763   -0.0720023406    5.3842247046
H        3.8068164196   -2.1332353750    2.6352596875
H        4.0054837800   -2.0692886579    0.1671726749
15   

H        2.1905011724   -1.0214695445   -1.1988004068
C        2.1016769619   -1.0646203591   -0.1167005303
C        3.1207059557   -1.6370160001    0.6502343868
C        3.0056875884   -1.6949269097    2.0450473536
C        1.8682408917   -1.1791639999    2.6946325142
C        0.8474166806   -0.6093971377    1.9051224110
C        0.9648769171   -0.5517089041    0.5121682232
H        0.1680254803   -0.1107403864   -0.0804012500
H       -0.0525677387   -0.2120030655    2.3674975562
C        1.7415377547   -1.2388741136    4.1617086621
O        2.5707483659   -1.8108536126    4.8153960276
O        0.6010843426   -0.7318112742    4.7354542568
H        0.7746778590    0.0717176422    5.2340679807
H        3.8037840422   -2.1468184330    2.6299638476
H        4.0036324616   -2.0407504301    0.1631497499
15   

H        2.1932233097   -0.9588335788   -1.1808155883
C        2.1026381905   -1.0224090380   -0.0998354282
C        3.1219044449   -1.6066676535    0.6577709059
C        3.0041649404   -1.6922662475    2.0508483871
C        1.8644938227   -1.1914621901    2.7078601714
C        0.8428203434   -0.6103293251    1.9279993880
C        0.9628363055   -0.5254963554    0.5365870085
H        0.1651361937   -0.0774768638   -0.0495845481
H       -0.0614954685   -0.2289823722    2.3953395135
C        1.7335388424   -1.2860344471    4.1719997394
O        2.5470548902   -1.8862473052    4.8167177345
O        0.6300298214   -0.7166576198    4.7707461311
H        0.8013009899    0.1859379278    5.0515046476
H        3.8015754304   -2.1544998096    2.6287445108
H        4.0066956928   -1.9989719283    0.1646701227
15   

H        2.1959997450   -0.8973485146   -1.1598626692
C        2.1039514727   -0.9794273218   -0.0802151046
C        3.1227141752   -1.5759894918    0.6683854120
C        3.0026774773   -1.6868974978    2.0593892239
C        1.8619527479   -1.1981062886    2.7233450054
C        0.8400835117   -0.6052275583    1.9526515873
C        0.9622691445   -0.4956704437    0.5630914717
H        0.1642660745   -0.0403842847   -0.0171213534
H       -0.0680182137   -0.2381494216    2.4240052528
C        1.7266404034   -1.3255009760    4.1840133022
O        2.5229630600   -1.9593881536    4.8163580767
O        0.6772146513   -0.6878127990    4.8066287795
H        0.8182109921    0.2612737249    4.8588856084
H        3.7989004906   -2.1598912664    2.6303471150
H        4.0084971126   -1.9590944026    0.1697632328
15   

H        2.1843526093   -0.8584678538   -1.1414542308
C        2.0944476129   -0.9524479935   -0.0625573181
C        3.1144292582   -1.5581729913    0.6768622240
C        2.9970704761   -1.6852802549    2.0665930300
C        1.8586062274   -1.2025549679    2.7386737975
C        0.8345412799   -0.6014265683    1.9771929743
C        0.9540106863   -0.4761501144    0.5886251795
H        0.1545639975   -0.0156832779    0.0144385316
H       -0.0748082968   -0.2435185175    2.4530349374
C        1.7265273604   -1.3498802070    4.1973750642
O        2.5033872645   -2.0224477502    4.8141403649
O        0.7378355067   -0.6540096401    4.8415042669
H        0.8071218129    0.2927487769    4.6857321843
H        3.7938615187   -2.1658917939    2.6305142759
H        3.9989321073   -1.9362649774    0.1720813794
15   

H        2.1521845051   -0.8481589320   -1.1305412374
C        2.0686025985   -0.9469910898   -0.0515361602
C        3.0910080713   -1.5602133060    0.6781057520
C        2.9820915978   -1.6935821674    2.0677754547
C        1.8506728756   -1.2085823226    2.7499335419
C        0.8229246537   -0.6011717445    1.9982694766
C        0.9338920740   -0.4701675022    0.6093749752
H        0.1323142059   -0.0052506566    0.0417236731
H       -0.0837847841   -0.2447879201    2.4799676335
C        1.7320711998   -1.3605416134    4.2090352845
O        2.4827789562   -2.0780719343    4.8083070248
O        0.8064597221   -0.6146808271    4.8726823357
H        0.7703691066    0.2911116053    4.5467541279
H        3.7808853930   -2.1794633400    2.6244489724
H        3.9710125397   -1.9390263420    0.1659641775
15   

H        2.1036991091   -0.8645059587   -1.1265206889
C        2.0301717518   -0.9616878385   -0.0466080627
C        3.0551603253   -1.5823097054    0.6728195274
C        2.9597477314   -1.7128320506    2.0635639310
C        1.8404947589   -1.2165583038    2.7574817122
C        0.8087761713   -0.6029225155    2.0161098215
C        0.9061070760   -0.4754145455    0.6256814428
H        0.1025084006   -0.0054319748    0.0650655490
H       -0.0910716919   -0.2393241558    2.5047300382
C        1.7446223341   -1.3600076061    4.2189671693
O        2.4629092781   -2.1234719283    4.8019672369
O        0.8796570551   -0.5710231832    4.8998162704
H        0.7137027303    0.2641688277    4.4462888539
H        3.7610928249   -2.2030347354    2.6128561054
H        3.9271341838   -1.9682426276    0.1522472936
15   

H        2.0485494548   -0.9002829028   -1.1277762262
C        1.9861599016   -0.9911812685   -0.0466005751
C        3.0103502578   -1.6233121235    0.6635485267
C        2.9299425911   -1.7445287553    2.0558911582
C        1.8279489042   -1.2263452953    2.7613088458
C        0.7958375415   -0.6017905195    2.0292835604
C        0.8777789403   -0.4846262821    0.6367599245
H        0.0749763707   -0.0055922365    0.0826948090
H       -0.0925722318   -0.2202059255    2.5243357276
C        1.7595309640   -1.3521489483    4.2260582469
O        2.4386431647   -2.1607922615    4.7957947108
O        0.9540667574   -0.5217591351    4.9195930511
H        0.6435555903    0.2202057428    4.3848023805
H        3.7316304398   -2.2416379725    2.5985261856
H        3.8707423858   -2.0241029115    0.1349369587
15   

H        1.9917941741   -0.9392975577   -1.1330652359
C        1.9428060614   -1.0198721909   -0.0503766825
C        2.9616845349   -1.6704052269    0.6501073093
C        2.8991528637   -1.7770425776    2.0443374758
C        1.8214290147   -1.2257590903    2.7626952126
C        0.7944316591   -0.5812719484    2.0399382853
C        0.8580573500   -0.4798294163    0.6450008350
H        0.0601700579    0.0153240608    0.0980754210
H       -0.0754967063   -0.1674596956    2.5406474805
C        1.7842871622   -1.3319355372    4.2312349782
O        2.4463606446   -2.1623385220    4.7902618717
O        1.0071228433   -0.4880721497    4.9361936299
H        0.5258446077    0.1308077647    4.3713537733
H        3.6984608442   -2.2865967905    2.5789389454
H        3.8049722433   -2.0955001398    0.1129553825
