15   

H        2.1271730005   -1.0610755566   -1.2209014137
C        1.9701895738   -1.0475290908   -0.1458266681
C        3.0517428554   -1.2090818241    0.7250384930
C        2.8496089340   -1.1921315220    2.1114825651
C        1.5750277870   -1.0076546219    2.6408534493
C        0.4892325405   -0.8565614856    1.7591072321
C        0.6850929351   -0.8725806401    0.3736033677
H       -0.1620506374   -0.7512108217   -0.2955391502
H       -0.5139330291   -0.7261668168    2.1592565987
C        1.3363210858   -1.0078906867    4.1002309048
O        0.2532050539   -1.1124340541    4.6203452440
O        2.4619734690   -0.8943814853    4.8444932835
H        2.1478007905   -0.9106859810    5.7603516719
H        3.7101016915   -1.3264421615    2.7620970064
H        4.0522053984   -1.3500597651    0.3259772353
15   

H        2.1246496026   -1.0335580404   -1.2187924236
C        1.9683908998   -1.0309821063   -0.1435314206
C        3.0460755381   -1.2339523062    0.7240822862
C        2.8439259868   -1.2315912278    2.1105048385
C        1.5758537613   -1.0141836917    2.6412106212
C        0.4920515268   -0.8312664049    1.7648207083
C        0.6874149750   -0.8324167384    0.3789799036
H       -0.1568487200   -0.6835757050   -0.2882392619
H       -0.5072636177   -0.6894662865    2.1703975729
C        1.3412581693   -1.0533494998    4.1018494937
O        0.3073782575   -1.3862224383    4.6242210238
O        2.4261758984   -0.7149028176    4.8376133133
H        2.1290458579   -0.7916191740    5.7560149856
H        3.6941599674   -1.4007061188    2.7666499759
H        4.0421698210   -1.3970807515    0.3225634384
15   

H        2.1177448929   -1.0080961669   -1.2164917972
C        1.9639255068   -1.0165762121   -0.1409094669
C        3.0381741998   -1.2615943409    0.7207678629
C        2.8382729610   -1.2736887314    2.1073345668
C        1.5785464729   -1.0245832249    2.6418253198
C        0.4961199480   -0.8062762172    1.7737746547
C        0.6889192191   -0.7926000813    0.3874307189
H       -0.1526107330   -0.6144353519   -0.2760274808
H       -0.4980997844   -0.6504512262    2.1861060424
C        1.3535898644   -1.0994205047    4.1052576715
O        0.4186272776   -1.6454773707    4.6319184925
O        2.3541362481   -0.5472897783    4.8298454201
H        2.0881487063   -0.6791246584    5.7514258371
H        3.6787888763   -1.4750765780    2.7669377714
H        4.0284918129   -1.4467005018    0.3145360645
15   

H        2.1067605493   -0.9837237336   -1.2155332272
C        1.9581514180   -1.0062204445   -0.1394207245
C        3.0296494002   -1.2973250008    0.7117954550
C        2.8360243652   -1.3272288295    2.0988935466
C        1.5870257975   -1.0499551465    2.6422064415
C        0.5058422099   -0.7862417438    1.7866925441
C        0.6923847257   -0.7543509063    0.3996203744
H       -0.1466320129   -0.5407498247   -0.2565023273
H       -0.4808916567   -0.6098394043    2.2079206941
C        1.3771931461   -1.1498765936    4.1105319093
O        0.5893773061   -1.8830917488    4.6473898020
O        2.2370599005   -0.3838117263    4.8190324193
H        2.0116247966   -0.5557878004    5.7446717771
H        3.6699136801   -1.5622554166    2.7556338232
H        4.0120832333   -1.5040851288    0.2969633146
15   

H        2.0896331576   -0.9507904627   -1.2157595629
C        1.9514577852   -0.9933123692   -0.1388610878
C        3.0217381254   -1.3390446601    0.6934664490
C        2.8415350846   -1.3943120820    2.0815637010
C        1.6068433651   -1.0943036303    2.6431602318
C        0.5275842637   -0.7671068061    1.8080133635
C        0.7008689844   -0.7096706816    0.4199561826
H       -0.1361614596   -0.4497454089   -0.2218163145
H       -0.4463801718   -0.5603677077    2.2442928725
C        1.4183744819   -1.2028470139    4.1181755102
O        0.8236908824   -2.0837035743    4.6786892923
O        2.0538798717   -0.2230816578    4.7977142029
H        1.8716600462   -0.4128220688    5.7292572564
H        3.6732241392   -1.6688434767    2.7254201090
H        3.9926313688   -1.5674539064    0.2631016669
15   

H        2.0780869300   -0.9098246448   -1.2148585933
C        1.9525835662   -0.9734705537   -0.1374504979
C        3.0178275900   -1.3854871583    0.6707002879
C        2.8537545594   -1.4680159714    2.0594546257
C        1.6377601395   -1.1415041076    2.6452017903
C        0.5679591719   -0.7298468238    1.8353318088
C        0.7247767456   -0.6452631146    0.4467129349
H       -0.1065117831   -0.3263707824   -0.1756232370
H       -0.3858865069   -0.4777536085    2.2914383510
C        1.4730089987   -1.2405544486    4.1258747246
O        1.1012532053   -2.2147593928    4.7218263265
O        1.7928660473   -0.0917309600    4.7602209329
H        1.6470277038   -0.2803551027    5.6983165596
H        3.6824125212   -1.7907055077    2.6845548187
H        3.9726394206   -1.6427917322    0.2210765833
15   

H        2.0619301068   -0.8790493075   -1.2142883989
C        1.9514689430   -0.9557136976   -0.1360818854
C        3.0114372732   -1.4250709163    0.6471003911
C        2.8664447572   -1.5247666222    2.0368281587
C        1.6710777304   -1.1693990617    2.6487218174
C        0.6126024075   -0.6836219544    1.8642054557
C        0.7500734712   -0.5820557697    0.4747114218
H       -0.0749028844   -0.2118186812   -0.1272486998
H       -0.3175967515   -0.3865709500    2.3416220931
C        1.5383119488   -1.2544280516    4.1318157707
O        1.4097146879   -2.2666544531    4.7662480239
O        1.5123008311   -0.0369476099    4.7172106861
H        1.4075069331   -0.2213765788    5.6616544446
H        3.6920747327   -1.8895829101    2.6426977159
H        3.9478265887   -1.7126184264    0.1774794537
15   

H        2.0487283180   -0.8846209112   -1.2172488837
C        1.9501733339   -0.9588594709   -0.1377204767
C        3.0022850300   -1.4686811137    0.6303329568
C        2.8726607065   -1.5653425127    2.0217252364
C        1.6979208442   -1.1710126480    2.6518016138
C        0.6503152495   -0.6382453577    1.8810806510
C        0.7728985777   -0.5398081843    0.4900044845
H       -0.0447275105   -0.1354384074   -0.0998981891
H       -0.2602933053   -0.3018334420    2.3702923996
C        1.5964290045   -1.2427548451    4.1339544843
O        1.7085418184   -2.2410864406    4.7950790157
O        1.2701426565   -0.0543671881    4.6902017818
H        1.2142083665   -0.2364197687    5.6393666044
H        3.6927049392   -1.9612305691    2.6159929662
H        3.9210358946   -1.7898440967    0.1478198360
15   

H        2.0333481911   -0.9131399310   -1.2227800123
C        1.9445723134   -0.9746811414   -0.1416053914
C        2.9880041189   -1.5117232965    0.6193108893
C        2.8713850995   -1.5919213787    2.0127836059
C        1.7174240984   -1.1528007744    2.6543384806
C        0.6776825342   -0.5944717765    1.8881686858
C        0.7885130536   -0.5127326786    0.4950170262
H       -0.0224195048   -0.0880492277   -0.0898372158
H       -0.2191297118   -0.2253041529    2.3794632663
C        1.6441545613   -1.2154775829    4.1344176728
O        1.9849076384   -2.1537229375    4.8074671940
O        1.0718749179   -0.1194488327    4.6837195313
H        1.0708124267   -0.2971128257    5.6354745726
H        3.6854929468   -2.0098006947    2.6006347398
H        3.8902879094   -1.8671374273    0.1297716498
15   

H        2.0177214917   -0.9530386957   -1.2296521049
C        1.9381291392   -0.9963333751   -0.1468787853
C        2.9725888498   -1.5530641328    0.6115626653
C        2.8683765349   -1.6096800419    2.0070876944
C        1.7361895746   -1.1234446828    2.6558132027
C        0.7023971033   -0.5507017995    1.8890972610
C        0.8022461061   -0.4928422164    0.4939286901
H       -0.0027079992   -0.0551391687   -0.0896011376
H       -0.1835729224   -0.1515383912    2.3766152419
C        1.6838699788   -1.1792633719    4.1339537702
O        2.2303402313   -2.0124054923    4.8120087637
O        0.9059726545   -0.2185083246    4.6851734019
H        0.9568714046   -0.3830071694    5.6380261106
H        3.6777040688   -2.0441232059    2.5899185219
H        3.8587785002   -1.9425880602    0.1185777719
15   

H        1.9967623641   -0.9985488918   -1.2355066821
C        1.9271955557   -1.0218994794   -0.1514282970
C        2.9532646094   -1.5945606855    0.6058808601
C        2.8626774277   -1.6251127168    2.0031200482
C        1.7537231703   -1.0925346466    2.6572694761
C        0.7245635658   -0.5100196028    1.8889142545
C        0.8119452556   -0.4783032974    0.4920856389
H        0.0122840388   -0.0302803618   -0.0909041269
H       -0.1498626562   -0.0810753995    2.3718313606
C        1.7167859944   -1.1395533839    4.1348693982
O        2.4373567390   -1.8226228019    4.8195694351
O        0.7649311918   -0.3497072181    4.6851518989
H        0.8588007006   -0.4876085699    5.6390228166
H        3.6683853252   -2.0734523916    2.5805920356
H        3.8229864745   -2.0170558834    0.1107123049
15   

H        1.9716837790   -1.0475019392   -1.2388640006
C        1.9132133386   -1.0499015490   -0.1538816237
C        2.9316319613   -1.6363232050    0.6029275422
C        2.8559176633   -1.6392787990    2.0013721641
C        1.7711758701   -1.0614683951    2.6583320889
C        0.7462428235   -0.4710201989    1.8892632601
C        0.8193502363   -0.4666599668    0.4912754663
H        0.0247346791   -0.0093775339   -0.0914311793
H       -0.1134980208   -0.0118416902    2.3706635313
C        1.7452535820   -1.0947464362    4.1362315885
O        2.6010901807   -1.5895811598    4.8276185173
O        0.6531705466   -0.5093032340    4.6816360773
H        0.7779856413   -0.6089904139    5.6367401843
H        3.6566943247   -2.0997823764    2.5761517994
H        3.7841533634   -2.0910886939    0.1064277938
15   

H        1.9428082717   -1.0963258248   -1.2386207507
C        1.8962408398   -1.0779958424   -0.1532147326
C        2.9074102456   -1.6776606982    0.6032335752
C        2.8472829559   -1.6530115717    2.0022310415
C        1.7877701653   -1.0308317694    2.6592356365
C        0.7669194242   -0.4332575631    1.8913605382
C        0.8243409229   -0.4558363438    0.4928024647
H        0.0346411543    0.0102406972   -0.0896116072
H       -0.0752432486    0.0541578397    2.3761404121
C        1.7680236527   -1.0466950957    4.1378279895
O        2.7114770644   -1.3258307833    4.8353945750
O        0.5776514718   -0.6891163045    4.6743416124
H        0.7186256840   -0.7416484905    5.6309317227
H        3.6406252573   -2.1237622453    2.5789886733
H        3.7419411469   -2.1639322816    0.1060330716
15   

H        1.9153641094   -1.1385418477   -1.2355605078
C        1.8803414420   -1.1010625939   -0.1502144097
C        2.8824905272   -1.7163503944    0.6063618044
C        2.8371716160   -1.6662333475    2.0052864486
C        1.8045831785   -0.9994947031    2.6597614547
C        0.7894773270   -0.3928857470    1.8941242539
C        0.8314071873   -0.4399933290    0.4956123090
H        0.0476218557    0.0360742811   -0.0866954411
H       -0.0337941140    0.1199069509    2.3852615851
C        1.7840533419   -0.9976994261    4.1397371598
O        2.7616547916   -1.0494982360    4.8426783265
O        0.5419984177   -0.8781429014    4.6641638956
H        0.6825570056   -0.8801506891    5.6221921230
H        3.6205535699   -2.1476981129    2.5866194710
H        3.6978777778   -2.2341902471    0.1092897694
15   

H        1.8897884790   -1.1733117750   -1.2310667824
C        1.8653334708   -1.1182844392   -0.1461792379
C        2.8555595624   -1.7517524075    0.6116652833
C        2.8236111673   -1.6785019759    2.0100256110
C        1.8194261163   -0.9679417384    2.6602269800
C        0.8133159661   -0.3486616256    1.8959988821
C        0.8408644020   -0.4178542590    0.4980397550
H        0.0649307894    0.0702586906   -0.0847937651
H        0.0095144805    0.1890701115    2.3926628092
C        1.7934632355   -0.9448832003    4.1430370010
O        2.7502839752   -0.7666230362    4.8516483970
O        0.5468180528   -1.0710146675    4.6534115616
H        0.6708105164   -1.0220406108    5.6123853307
H        3.5954065163   -2.1730652009    2.5954338567
H        3.6506068694   -2.3015120477    0.1159354858
15   

H        1.8737395195   -1.2017559459   -1.2273502517
C        1.8548441605   -1.1316263893   -0.1432234884
C        2.8264987060   -1.7872613324    0.6201856156
C        2.8015836751   -1.6941567534    2.0176222523
C        1.8244835839   -0.9416422295    2.6591073548
C        0.8359084427   -0.3018934566    1.8917938534
C        0.8555569830   -0.3900061977    0.4947757742
H        0.0933599232    0.1148182087   -0.0919272703
H        0.0524911809    0.2650287032    2.3883476884
C        1.7910699962   -0.8900048866    4.1451899715
O        2.6770102737   -0.4859195492    4.8509845332
O        0.5974157351   -1.2735575720    4.6513677159
H        0.6959094487   -1.1757377032    5.6094470007
H        3.5577835307   -2.2057506456    2.6082045912
H        3.6011896179   -2.3695058348    0.1293566697
15   

H        1.8759943620   -1.2160235599   -1.2250216092
C        1.8528325651   -1.1344743147   -0.1417757287
C        2.7940656310   -1.8190166311    0.6345525922
C        2.7635605273   -1.7112254378    2.0308891714
C        1.8088804705   -0.9196584023    2.6566764989
C        0.8545996784   -0.2450485133    1.8781747072
C        0.8795041086   -0.3474880930    0.4821827464
H        0.1425635122    0.1822971271   -0.1146955127
H        0.0943203827    0.3599501388    2.3653999594
C        1.7699864762   -0.8345619914    4.1451889787
O        2.5399579867   -0.2183024690    4.8314923067
O        0.7111690297   -1.4888468291    4.6709640220
H        0.7857290694   -1.3482302164    5.6257611677
H        3.4961621254   -2.2446379786    2.6313886817
H        3.5494041630   -2.4346844379    0.1544805124
15   

H        1.9106466347   -1.2132795744   -1.2245241102
C        1.8684755288   -1.1259016721   -0.1423056456
C        2.7633789508   -1.8466281818    0.6560121893
C        2.7082077333   -1.7317931572    2.0510529156
C        1.7676188039   -0.9061614372    2.6526979286
C        0.8706340025   -0.1813077074    1.8528038183
C        0.9201932258   -0.2911092904    0.4579934234
H        0.2238369716    0.2723221799   -0.1565537229
H        0.1363161163    0.4686379593    2.3215826803
C        1.7235761227   -0.7864501195    4.1403386036
O        2.3327034541    0.0170083868    4.7929140153
O        0.9060190453   -1.6989713395    4.7090252594
H        0.9623962911   -1.5211177550    5.6587941819
H        3.4062956494   -2.2911159697    2.6686159174
H        3.5024428723   -2.4949347383    0.1939344050
15   

H        1.9514609321   -1.2012023688   -1.2237354347
C        1.8846855574   -1.1143254224   -0.1427153998
C        2.7255929052   -1.8757525956    0.6763715820
C        2.6387882206   -1.7617532588    2.0698602660
C        1.7112776663   -0.9050374246    2.6491887030
C        0.8813241603   -0.1260216193    1.8284330967
C        0.9626031287   -0.2353284563    0.4350648830
H        0.3135533376    0.3652759918   -0.1958564398
H        0.1751449535    0.5660273480    2.2801705652
C        1.6627576143   -0.7599503163    4.1322825295
O        2.0749834754    0.1840236460    4.7509227253
O        1.1553112897   -1.8515652856    4.7458418844
H        1.1933970705   -1.6420438569    5.6901025451
H        3.2972787023   -2.3501739324    2.7037188022
H        3.4482923987   -2.5539656824    0.2316798106
15   

H        1.9884322651   -1.1981718472   -1.2223635735
C        1.8991830425   -1.1130900147   -0.1428245270
C        2.6940528867   -1.9055303996    0.6924233223
C        2.5786730363   -1.7936296870    2.0840381168
C        1.6632396550   -0.9118325715    2.6466059170
C        0.8864723320   -0.0964226110    1.8086645076
C        0.9963928378   -0.2033946560    0.4171693352
H        0.3858290144    0.4242338385   -0.2257659628
H        0.1995298933    0.6232947040    2.2471981217
C        1.5962129775   -0.7529458054    4.1231748595
O        1.7812220763    0.2768979128    4.7161909590
O        1.3883458906   -1.9219443602    4.7700387272
H        1.3885163589   -1.6850538520    5.7087015178
H        3.2045959753   -2.4055556334    2.7287735591
H        3.4041910708   -2.6057745131    0.2618729365
15   

H        2.0149216062   -1.1944442474   -1.2224271113
C        1.9110579562   -1.1123891126   -0.1439610928
C        2.6681555370   -1.9321834019    0.6994086753
C        2.5343863698   -1.8244260447    2.0897928548
C        1.6372779206   -0.9181442789    2.6452156359
C        0.8985684251   -0.0769154430    1.7970061450
C        1.0272051466   -0.1795216920    0.4069584278
H        0.4454533214    0.4694415541   -0.2415040879
H        0.2252660297    0.6605112363    2.2278625493
C        1.5411089085   -0.7595789055    4.1160822823
O        1.4896697931    0.2955813614    4.6937461185
O        1.5887156390   -1.9344695049    4.7856601455
H        1.5334256645   -1.6844558116    5.7194033869
H        3.1353320933   -2.4599893177    2.7355668255
H        3.3639638899   -2.6510315438    0.2761763191
15   

H        2.0401906219   -1.1866233841   -1.2236677131
C        1.9256881974   -1.1083724470   -0.1459963218
C        2.6489149230   -1.9537305942    0.7011561781
C        2.5017305012   -1.8517560583    2.0907516065
C        1.6270662862   -0.9213713044    2.6441669162
C        0.9177631829   -0.0597451680    1.7893951579
C        1.0602876585   -0.1566557322    0.4005042139
H        0.5019666285    0.5104023032   -0.2502088250
H        0.2537796327    0.6897797102    2.2143291847
C        1.4956755607   -0.7734985858    4.1107632085
O        1.2113619973    0.2520745689    4.6764041840
O        1.7686334372   -1.9065748195    4.7996560181
H        1.6502193274   -1.6594029728    5.7283742038
H        3.0806733250   -2.5125348809    2.7312363173
H        3.3291001628   -2.6893840710    0.2814013702
15   

H        2.0648548554   -1.1740144731   -1.2244986351
C        1.9406969423   -1.1009782405   -0.1475290297
C        2.6308888145   -1.9717995853    0.7007446876
C        2.4713793375   -1.8776009104    2.0896492677
C        1.6211153547   -0.9241296484    2.6435138879
C        0.9377949812   -0.0436268388    1.7850007155
C        1.0931447113   -0.1330635852    0.3971583647
H        0.5565611628    0.5511375663   -0.2540570010
H        0.2815444549    0.7154854823    2.2051758895
C        1.4546566499   -0.7934309211    4.1070616868
O        0.9511186087    0.1524007142    4.6606327138
O        1.9392676608   -1.8416878688    4.8143195459
H        1.7607606467   -1.6121244976    5.7380093215
H        3.0265236922   -2.5652979301    2.7226372925
H        3.2946141927   -2.7230497150    0.2822451848
15   

H        2.0869134375   -1.1573567346   -1.2238971862
C        1.9531978733   -1.0915837005   -0.1476030306
C        2.6109763040   -1.9883130841    0.6991181652
C        2.4389648236   -1.9040534453    2.0872114912
C        1.6135344168   -0.9298471498    2.6431869150
C        0.9544077740   -0.0303193316    1.7846256751
C        1.1225172141   -0.1098426194    0.3977283349
H        0.6071071612    0.5915444555   -0.2523109398
H        0.3061437046    0.7364525644    2.2033545135
C        1.4158270656   -0.8205743991    4.1043664813
O        0.7150869652    0.0001981621    4.6434598662
O        2.0995468310   -1.7382239497    4.8286323097
H        1.8698878577   -1.5386220874    5.7479960386
H        2.9660070394   -2.6178585403    2.7151962429
H        3.2580459209   -2.7535749372    0.2799109558
