6    

H       -0.5836647822   -0.0616297003   -0.7589669570
C        0.0265059673    0.3286329349    0.0624006965
H       -0.6532222882    0.6939187499    0.8395559054
O        0.8557889299   -0.6603361629    0.5687624673
H        0.3697193641   -1.4836917489    0.6802303178
Br       1.1586915796    1.7754620708   -0.5756472037
6    

H       -0.5819666022   -0.0853606036   -0.7308638235
C        0.0176068155    0.3321313926    0.0848333523
H       -0.6666203639    0.7410497320    0.8358988329
O        0.8212929711   -0.6421280780    0.6507245824
H        0.4136821729   -1.5103742030    0.5776212171
Br       1.1692769711    1.7554480840   -0.6005019863
6    

H       -0.5900491890   -0.1048091990   -0.7072421384
C        0.0036063445    0.3310030749    0.1031336618
H       -0.6799032254    0.7866191720    0.8275186710
O        0.7673522067   -0.6344618439    0.7259357844
H        0.4809464643   -1.5203883071    0.4858342521
Br       1.1874073467    1.7302178679   -0.6185521633
6    

H       -0.6085731523   -0.1184832318   -0.6874128627
C       -0.0146778335    0.3262494777    0.1179106011
H       -0.6935218433    0.8253789581    0.8175955028
O        0.6999665310   -0.6364018102    0.7873007636
H        0.5667291852   -1.5107505104    0.4089978283
Br       1.2109381148    1.6979772278   -0.6321342789
6    

H       -0.2613219067   -0.1099824980   -0.9364315722
C       -0.0530068624    0.2861478884    0.0629533344
H       -0.9943102695    0.6312802166    0.5038157393
O        0.4857228643   -0.6808204081    0.8633352535
H        0.8221988197   -1.4253920060    0.3532513752
Br       1.1653800933    1.8663572854   -0.0828251648
6    

H       -0.2898232040   -0.1082659458   -0.9392986861
C       -0.0763870936    0.2780318145    0.0628924880
H       -1.0095237199    0.6555095184    0.4945199534
O        0.4121303314   -0.7123610297    0.8589668526
H        0.9225117354   -1.3576735053    0.3551127491
Br       1.2029446674    1.8166542677   -0.0823387185
6    

H       -0.3232262884   -0.0950437435   -0.9462117704
C       -0.0986843349    0.2718448672    0.0608848946
H       -1.0205559646    0.6749770455    0.4935251797
O        0.3506349801   -0.7494746197    0.8376581246
H        1.0134388172   -1.2794658174    0.3760676553
Br       1.2388736074    1.7587335944   -0.0823001346
6    

H       -0.3622964802   -0.0693515290   -0.9565158875
C       -0.1171924212    0.2683668356    0.0560238990
H       -1.0241839116    0.6904916819    0.5018022099
O        0.3026500753   -0.7917456530    0.8006290524
H        1.0910032222   -1.1983819384    0.4167365848
Br       1.2697432603    1.6981847423   -0.0830490317
6    

H       -0.4094960883   -0.0351464803   -0.9680740432
C       -0.1308747877    0.2646684233    0.0477614473
H       -1.0193522388    0.6968759678    0.5203511411
O        0.2692542623   -0.8380401857    0.7477081564
H        1.1518012016   -1.1233807069    0.4773341183
Br       1.2926174216    1.6446482092   -0.0870725631
6    

H       -0.4629333536    0.0076329798   -0.9791282007
C       -0.1379202271    0.2621609083    0.0353002704
H       -1.0039120390    0.6950419179    0.5473539306
O        0.2513387554   -0.8849762839    0.6811041859
H        1.1919756744   -1.0600821392    0.5556259292
Br       1.3067299337    1.6027725353   -0.0941469222
6    

H       -0.5180187725    0.0531359996   -0.9878684922
C       -0.1394461515    0.2585205691    0.0191075890
H       -0.9790703784    0.6819917202    0.5805514554
O        0.2490553683   -0.9282219899    0.6033881813
H        1.2083814522   -1.0099822520    0.6461968028
Br       1.3139865548    1.5763468926   -0.1037999700
6    

H       -0.5683674899    0.0955153933   -0.9931104520
C       -0.1369423178    0.2528388716    0.0011881002
H       -0.9457226877    0.6582366669    0.6184683938
O        0.2623554178   -0.9632881261    0.5193244349
H        1.1995706802   -0.9710181467    0.7414743083
Br       1.3173629474    1.5651724938   -0.1165163957
6    

H       -0.6106849768    0.1315213288   -0.9937529420
C       -0.1313884678    0.2461613851   -0.0156689050
H       -0.9039751629    0.6281461646    0.6601256707
O        0.2892211148   -0.9870997005    0.4346908973
H        1.1649078092   -0.9434950191    0.8348089703
Br       1.3201677998    1.5664709752   -0.1340668405
6    

H       -0.6447427333    0.1580143820   -0.9880772704
C       -0.1230715823    0.2396502919   -0.0285349156
H       -0.8567732807    0.5946480280    0.7029987566
O        0.3282462997   -0.9985999640    0.3556470561
H        1.1071360904   -0.9316587934    0.9213806572
Br       1.3210540778    1.5806252183   -0.1596583155
6    

H       -0.6693820077    0.1734132873   -0.9762983749
C       -0.1113872168    0.2352533965   -0.0358973131
H       -0.8097138599    0.5617146028    0.7420509587
O        0.3774350281   -0.9984456838    0.2882830578
H        1.0308205092   -0.9410299855    0.9976488602
Br       1.3169336847    1.6075746076   -0.1952333407
6    

H       -0.6822884533    0.1782659419   -0.9609413002
C       -0.0951204216    0.2348364147   -0.0381330478
H       -0.7667719337    0.5339717896    0.7735129574
O        0.4350534840   -0.9885876171    0.2371669014
H        0.9413891649   -0.9733144171    1.0604121375
Br       1.3051297936    1.6446851914   -0.2392665551
6    

H       -0.6841894424    0.1717865124   -0.9449865475
C       -0.0759810870    0.2376205688   -0.0365323941
H       -0.7310579310    0.5132648603    0.7966330111
O        0.4992795391   -0.9702849559    0.2051087478
H        0.8434556474   -1.0239495674    1.1061796402
Br       1.2858670524    1.6876943998   -0.2876829556
6    

H       -0.6764809671    0.1573035435   -0.9297372232
C       -0.0541035143    0.2444418254   -0.0327484379
H       -0.6998411632    0.5033391214    0.8129247656
O        0.5686652282   -0.9449394665    0.1926044476
H        0.7418319019   -1.0861820341    1.1311410242
Br       1.2612784149    1.7286160395   -0.3363304650
6    

H       -0.6623368024    0.1347031962   -0.9158055148
C       -0.0317514077    0.2540993244   -0.0283176442
H       -0.6730878634    0.5042516271    0.8232667712
O        0.6415120808   -0.9122691955    0.2000685532
H        0.6407428297   -1.1527422561    1.1327858300
Br       1.2338911660    1.7630614695   -0.3804350573
6    

H       -0.6459414570    0.1061162352   -0.9008786208
C       -0.0106182736    0.2672342124   -0.0234255766
H       -0.6501906592    0.5178985166    0.8293107697
O        0.7145065452   -0.8715399421    0.2273489730
H        0.5460383080   -1.2178260418    1.1088566386
Br       1.2066279175    1.7868277891   -0.4178072392
6    

H       -0.6321141895    0.0715570166   -0.8800033197
C        0.0070418498    0.2813309860   -0.0157236117
H       -0.6329361563    0.5415622849    0.8338503762
O        0.7794815098   -0.8248474683    0.2724918507
H        0.4640668712   -1.2806980957    1.0581460728
Br       1.1837256052    1.7998394336   -0.4510328176
6    

H       -0.6199379757    0.0344350971   -0.8523576760
C        0.0202152108    0.2955345926   -0.0029394281
H       -0.6249578280    0.5725877371    0.8373837438
O        0.8292244082   -0.7759765323    0.3327646787
H        0.4010101576   -1.3405730816    0.9833066522
Br       1.1676640157    1.8038219900   -0.4828482425
6    

H       -0.6067859428   -0.0015480112   -0.8211220462
C        0.0279370110    0.3091127819    0.0155685208
H       -0.6281316813    0.6088022635    0.8395941129
O        0.8598532687   -0.7292997456    0.4051711012
H        0.3628959842   -1.3956224897    0.8906087906
Br       1.1580037709    1.8004475411   -0.5146712852
6    

H       -0.5932891658   -0.0338570043   -0.7895031128
C        0.0300331009    0.3205165246    0.0382941858
H       -0.6392692903    0.6492877354    0.8403561780
O        0.8687437554   -0.6898228926    0.4854328259
H        0.3520975846   -1.4443088187    0.7870949006
Br       1.1552147913    1.7905936092   -0.5461351047
