15   

H        1.8844840080   -1.1974111106   -1.1372589494
C        1.8989262229   -1.1491072600   -0.0516467199
C        2.9606304116   -1.7132785995    0.6606461874
C        2.9827076201   -1.6488137348    2.0589067318
C        1.9377003707   -1.0273810203    2.7676382599
C        0.8787646129   -0.4514120867    2.0340868173
C        0.8609362340   -0.5150088070    0.6358011589
H        0.0425692426   -0.0641618925    0.0808542151
H        0.0688493055    0.0724084705    2.5336910732
C        1.9680897212   -0.9741908872    4.2380961931
O        2.9986689886   -1.1458832446    4.8281131912
O        0.8177008376   -0.7689023661    4.9117254249
H        0.0392105000   -0.8750360873    4.3499263529
H        3.8160623149   -2.0885544401    2.6033532056
H        3.7727310491   -2.2015685979    0.1292295705
15   

H        1.8836722151   -1.2629956792   -1.1392469282
C        1.8975130700   -1.2018912287   -0.0542876929
C        2.9496614117   -1.7733259897    0.6666799313
C        2.9716343127   -1.6911762703    2.0642051534
C        1.9362441329   -1.0429521797    2.7629972198
C        0.8870039516   -0.4610348337    2.0206424283
C        0.8685941648   -0.5432180173    0.6235270517
H        0.0576316621   -0.0865545800    0.0625076749
H        0.0863574578    0.0823221174    2.5150185483
C        1.9669692172   -0.9570638609    4.2318026208
O        2.9798986341   -1.1865614993    4.8318058916
O        0.8201798788   -0.6788194542    4.8963881059
H        0.0378185925   -0.9607088413    4.4072844056
H        3.7987832898   -2.1346413079    2.6149664756
H        3.7551672087   -2.2796943584    0.1422471500
15   

H        1.8958474723   -1.3125061261   -1.1453677973
C        1.9057400733   -1.2419758469   -0.0609632145
C        2.9499784390   -1.8156587070    0.6699165059
C        2.9671776177   -1.7205211442    2.0668716700
C        1.9351405777   -1.0554389581    2.7547952043
C        0.8935599220   -0.4730675320    2.0023557083
C        0.8794330613   -0.5687186326    0.6062337441
H        0.0740216204   -0.1107275955    0.0383788520
H        0.0955357396    0.0802676599    2.4903535043
C        1.9609908645   -0.9456829309    4.2222495775
O        2.9519525252   -1.2278115673    4.8353835352
O        0.8187592339   -0.5923984266    4.8733959186
H        0.0425716754   -1.0278574338    4.5047499681
H        3.7891123703   -2.1644854439    2.6248649872
H        3.7535251999   -2.3330163347    0.1533412494
15   

H        1.9219866667   -1.3338984584   -1.1566116849
C        1.9244091750   -1.2605626999   -0.0723839842
C        2.9607643474   -1.8366219047    0.6679742854
C        2.9681709671   -1.7376285411    2.0649088593
C        1.9345631939   -1.0648760915    2.7430505033
C        0.9005094724   -0.4818421865    1.9810001318
C        0.8957463633   -0.5817005611    0.5852588964
H        0.0954028012   -0.1228526992    0.0110256689
H        0.0999450969    0.0732139378    2.4631307946
C        1.9493363838   -0.9460740059    4.2102333606
O        2.9157964688   -1.2750075839    4.8379326195
O        0.8161977537   -0.5119863117    4.8460295134
H        0.0570666120   -1.0666835643    4.6424416260
H        3.7844000262   -2.1830174869    2.6299481709
H        3.7659094521   -2.3585304420    0.1586066387
15   

H        1.9614659223   -1.3224276347   -1.1733845124
C        1.9526748670   -1.2536151638   -0.0889324593
C        2.9803831438   -1.8339615062    0.6601873297
C        2.9726504959   -1.7413359318    2.0576714964
C        1.9329506882   -1.0694555384    2.7274538096
C        0.9072918694   -0.4834484191    1.9565383874
C        0.9172739362   -0.5772428600    0.5605039722
H        0.1222466445   -0.1165667754   -0.0195395757
H        0.0997834878    0.0659361586    2.4336926268
C        1.9291472176   -0.9585095122    4.1957072780
O        2.8728462897   -1.3253088097    4.8365547622
O        0.8133990387   -0.4410092316    4.8144934309
H        0.0849154923   -1.0676539482    4.8165609711
H        3.7819510703   -2.1906274620    2.6293853750
H        3.7902702628   -2.3546139227    0.1571875759
15   

H        2.0124683023   -1.2864542807   -1.1912260905
C        1.9887871518   -1.2287761461   -0.1063859772
C        3.0061203562   -1.8165337504    0.6511121208
C        2.9781728240   -1.7393987026    2.0493696391
C        1.9290792011   -1.0744412292    2.7116035520
C        0.9137004440   -0.4819045282    1.9321022791
C        0.9434640273   -0.5606395978    0.5354837138
H        0.1549027042   -0.0960615129   -0.0501632487
H        0.0962686697    0.0569021439    2.4044495388
C        1.8997871848   -0.9847667810    4.1816034081
O        2.8238412094   -1.3846559978    4.8327016725
O        0.8135931305   -0.3839986397    4.7813436128
H        0.1343853978   -1.0226276622    5.0130069205
H        3.7788264150   -2.1957532701    2.6274540565
H        3.8230994517   -2.3317344790    0.1541011405
15   

H        2.0645212174   -1.2497786370   -1.2060674946
C        2.0244746295   -1.2045334698   -0.1211522812
C        3.0313975059   -1.7988703771    0.6450825535
C        2.9814350598   -1.7388855331    2.0436502886
C        1.9210721343   -1.0834274483    2.6976861752
C        0.9160204779   -0.4850744854    1.9090873529
C        0.9674232818   -0.5470970677    0.5123206880
H        0.1854495437   -0.0791647626   -0.0793890933
H        0.0874570953    0.0417535557    2.3755844943
C        1.8644636305   -1.0161122555    4.1688072952
O        2.7727895320   -1.4447172497    4.8270557774
O        0.8119089140   -0.3497498152    4.7476210989
H        0.2118246188   -0.9482730340    5.2015791505
H        3.7735156469   -2.2016818207    2.6282177583
H        3.8568875234   -2.3066945357    0.1546817041
15   

H        2.1054643775   -1.2293129537   -1.2160851512
C        2.0505493767   -1.1936001340   -0.1314905699
C        3.0484536548   -1.7918655186    0.6434523665
C        2.9786950904   -1.7449664331    2.0417458002
C        1.9079340453   -1.0974925456    2.6870041781
C        0.9117514794   -0.4960058929    1.8893575383
C        0.9825275730   -0.5455165936    0.4929998406
H        0.2063036560   -0.0760352710   -0.1049739177
H        0.0733168411    0.0209186942    2.3493628385
C        1.8283876185   -1.0446254665    4.1582480503
O        2.7179557128   -1.5064188120    4.8231435473
O        0.8069598146   -0.3320784798    4.7179659736
H        0.3143662119   -0.8554760994    5.3592634566
H        3.7635672487   -2.2116494127    2.6327670884
H        3.8820129086   -2.2930996031    0.1600465616
15   

H        2.1395109161   -1.2160488613   -1.2221904096
C        2.0722393276   -1.1858917148   -0.1381392510
C        3.0670565151   -1.7782276140    0.6453619938
C        2.9811094649   -1.7386656708    2.0430524240
C        1.8969740408   -1.1044931878    2.6790795283
C        0.9035610993   -0.5098784036    1.8727678395
C        0.9907009894   -0.5516382050    0.4771425503
H        0.2161005644   -0.0875735962   -0.1271111830
H        0.0537563533   -0.0056925496    2.3261863497
C        1.7990665535   -1.0595178949    4.1496603314
O        2.6824184080   -1.5241133775    4.8236025509
O        0.7732467616   -0.3583028982    4.6950932323
H        0.4261062690   -0.8001900064    5.4800685747
H        3.7633097930   -2.2012038244    2.6407306573
H        3.9105169229   -2.2695172439    0.1690294787
15   

H        2.1597710901   -1.2033955901   -1.2262337032
C        2.0832737078   -1.1788236633   -0.1426622858
C        3.0755155521   -1.7681120381    0.6464388154
C        2.9774436136   -1.7359829790    2.0435511510
C        1.8837197723   -1.1121793052    2.6732774538
C        0.8926070109   -0.5213398195    1.8614183908
C        0.9918911024   -0.5555246061    0.4664159029
H        0.2186559804   -0.0946651444   -0.1420083170
H        0.0346215983   -0.0271823390    2.3105995077
C        1.7732893668   -1.0739759448    4.1431246634
O        2.6438080444   -1.5545251973    4.8245058725
O        0.7399032048   -0.3917489861    4.6808940055
H        0.5371981302   -0.7272174910    5.5654997440
H        3.7573437478   -2.1965553497    2.6456724908
H        3.9261457693   -2.2515673841    0.1748890809
15   

H        2.1789671189   -1.1891779599   -1.2286798353
C        2.0952162349   -1.1693734477   -0.1455524228
C        3.0879685088   -1.7519974534    0.6479201343
C        2.9803166840   -1.7262604224    2.0444847593
C        1.8762594379   -1.1158454809    2.6690379333
C        0.8843835189   -0.5322790607    1.8529577323
C        0.9934516981   -0.5596206429    0.4585602605
H        0.2193254941   -0.1046442493   -0.1531445532
H        0.0177768421   -0.0501302577    2.2987463603
C        1.7556163487   -1.0842057432    4.1380139996
O        2.6168335977   -1.5726145196    4.8267461092
O        0.6983563091   -0.4452919620    4.6712270085
H        0.6316778721   -0.6531536498    5.6154453424
H        3.7600928162   -2.1822249679    2.6502287726
H        3.9461104471   -2.2257385104    0.1801524334
15   

H        2.1947374030   -1.1718992455   -1.2287322052
C        2.1059673436   -1.1574189930   -0.1459220423
C        3.1015892552   -1.7322259315    0.6496946105
C        2.9872788358   -1.7136386993    2.0458614794
C        1.8733663893   -1.1187168873    2.6677320497
C        0.8783520491   -0.5435259051    1.8495567171
C        0.9943765879   -0.5631388526    0.4556082702
H        0.2175954257   -0.1149157722   -0.1577180195
H        0.0034217092   -0.0748250231    2.2934684423
C        1.7453979085   -1.0948666235    4.1361303246
O        2.6008502046   -1.5892391563    4.8282333557
O        0.6573499088   -0.5109972470    4.6661220628
H        0.6999389110   -0.5653211222    5.6333332705
H        3.7687697960   -2.1642753301    2.6533678310
H        3.9668078311   -2.1948619477    0.1838598397
15   

H        2.2009818265   -1.1492789478   -1.2274091927
C        2.1103880053   -1.1418752100   -0.1446768312
C        3.1112075286   -1.7098792095    0.6492615810
C        2.9944053160   -1.7007245508    2.0452979219
C        1.8725223927   -1.1226138320    2.6688219855
C        0.8719829139   -0.5547480023    1.8522414479
C        0.9908370259   -0.5643555910    0.4584089033
H        0.2096728968   -0.1221337901   -0.1537023280
H       -0.0099699153   -0.1004098172    2.2971438475
C        1.7418525834   -1.1091454935    4.1372193448
O        2.5956212908   -1.6110535645    4.8255198551
O        0.6233568342   -0.5811941972    4.6668987331
H        0.7380839982   -0.4603478616    5.6215896631
H        3.7795791171   -2.1469071771    2.6513535783
H        3.9821291753   -2.1604604631    0.1822317930
15   

H        2.2026970880   -1.1256024417   -1.2237546663
C        2.1119326460   -1.1268855899   -0.1410068571
C        3.1182424986   -1.6906782228    0.6489067704
C        3.0011355653   -1.6930448734    2.0449202466
C        1.8732982796   -1.1310638006    2.6726769073
C        0.8668925622   -0.5679399609    1.8599345808
C        0.9863264827   -0.5656087318    0.4660952777
H        0.2005679556   -0.1274456317   -0.1430522136
H       -0.0207107118   -0.1274578578    2.3074054984
C        1.7425057022   -1.1297618481    4.1413487381
O        2.5948292523   -1.6432847721    4.8216789977
O        0.5999696414   -0.6453359559    4.6728183693
H        0.7515957899   -0.3386902404    5.5778783972
H        3.7903769825   -2.1366877961    2.6475811544
H        3.9934770523   -2.1295439644    0.1787777106
15   

H        2.2024819524   -1.1019453181   -1.2185554164
C        2.1119018535   -1.1140246899   -0.1358499302
C        3.1223017100   -1.6781178101    0.6485532765
C        3.0053598799   -1.6947204714    2.0444542711
C        1.8737103449   -1.1466526245    2.6777359047
C        0.8627478301   -0.5838450989    1.8704087386
C        0.9821268909   -0.5671853596    0.4766446880
H        0.1928263277   -0.1297634548   -0.1284594879
H       -0.0290773713   -0.1558086258    2.3213993343
C        1.7438508674   -1.1595768666    4.1464720475
O        2.5897002815   -1.6921276373    4.8182492012
O        0.5891191364   -0.6919566598    4.6844649821
H        0.7563617458   -0.2017551547    5.4991357891
H        3.7976012063   -2.1390591947    2.6427141903
H        4.0004576951   -2.1065322994    0.1742256311
15   

H        2.1953599927   -1.0664000559   -1.2108955836
C        2.1066641675   -1.0919055709   -0.1282511413
C        3.1239632966   -1.6550208398    0.6478124246
C        3.0094437686   -1.6892385756    2.0435218273
C        1.8734307746   -1.1600179904    2.6850123123
C        0.8549386794   -0.5989636242    1.8860767976
C        0.9721559289   -0.5643126793    0.4924000759
H        0.1772342629   -0.1287178471   -0.1066538338
H       -0.0417705898   -0.1876478497    2.3427171867
C        1.7466811696   -1.1926938506    4.1535312613
O        2.5937540428   -1.7314971790    4.8159724646
O        0.5843044840   -0.7355723178    4.7051138892
H        0.7466948565   -0.0720224771    5.3842213722
H        3.8068010087   -2.1332940695    2.6352646858
H        4.0054378773   -2.0694199294    0.1671735039
15   

H        2.1905466123   -1.0213903891   -1.1987904900
C        2.1017199938   -1.0645484142   -0.1166910933
C        3.1207550529   -1.6369333723    0.6502436400
C        3.0057326498   -1.6948555484    2.0450558405
C        1.8682745325   -1.1791169711    2.6946407068
C        0.8474450019   -0.6093593789    1.9051303472
C        0.9649101874   -0.5516581957    0.5121771270
H        0.1680538855   -0.1106983807   -0.0803922946
H       -0.0525491897   -0.2119853191    2.3675035073
C        1.7415560525   -1.2388603941    4.1617148102
O        2.5707986420   -1.8107868799    4.8154003260
O        0.6010662935   -0.7318610651    4.7354519092
H        0.7746081666    0.0716806668    5.2340629708
H        3.8038324403   -2.1467424235    2.6299713514
H        4.0036884447   -2.0406529830    0.1631592117
15   

H        2.1933758403   -0.9585912632   -1.1807852662
C        2.1027717027   -1.0221969702   -0.0998084720
C        3.1220284608   -1.6064686974    0.6578005548
C        3.0042605533   -1.6921141606    2.0508728669
C        1.8645688961   -1.1913463488    2.7078767933
C        0.8429077638   -0.6101949347    1.9280131111
C        0.9629526462   -0.5253142383    0.5366062675
H        0.1652583053   -0.0772877623   -0.0495678684
H       -0.0614271763   -0.2288821226    2.3953440408
C        1.7335516212   -1.2860274488    4.1720040923
O        2.5470794022   -1.8862187993    4.8167186007
O        0.6300193536   -0.7166803774    4.7707449260
H        0.8012632659    0.1859191574    5.0515072455
H        3.8016583881   -2.1543691276    2.6287693081
H        4.0068311834   -1.9987534695    0.1647048738
15   

H        2.1960967824   -0.8972134476   -1.1598419260
C        2.1040373918   -0.9793079527   -0.0801964998
C        3.1227969360   -1.5758714634    0.6684072551
C        3.0027437793   -1.6868040877    2.0594077910
C        1.8620044399   -1.1980379473    2.7233571648
C        0.8401399633   -0.6051549900    1.9526601150
C        0.9623426127   -0.4955723411    0.5631036333
H        0.1643411342   -0.0402868768   -0.0171119823
H       -0.0679750294   -0.2380998349    2.4240060531
C        1.7266546409   -1.3254933139    4.1840171593
O        2.5229916889   -1.9593575847    4.8163591587
O        0.6772039887   -0.6878346228    4.8066287560
H        0.8181736138    0.2612559474    4.8588873728
H        3.7989614582   -2.1598054641    2.6303667772
H        4.0085884100   -1.9589622283    0.1697894100
15   

H        2.1842825509   -0.8585730955   -1.1414699094
C        2.0943900712   -0.9525379059   -0.0625706172
C        3.1143837350   -1.5582454955    0.6768465199
C        2.9970428044   -1.6853294200    2.0665809202
C        1.8585846920   -1.2025981708    2.7386678144
C        0.8345063952   -0.6014895547    1.9771892660
C        0.9539582100   -0.4762359396    0.5886178150
H        0.1545031505   -0.0157808853    0.0144334079
H       -0.0748371897   -0.2435738406    2.4530367642
C        1.7265393064   -1.3498761132    4.1973771368
O        2.5034087052   -2.0224237029    4.8141474954
O        0.7378277358   -0.6540267079    4.8415011394
H        0.8070926336    0.2927333846    4.6857291610
H        3.7938455373   -2.1659227661    2.6305011567
H        3.9988834536   -1.9363393276    0.1720615664
15   

H        2.1519442205   -0.8483888018   -1.1305824555
C        2.0684011456   -0.9471903289   -0.0515715646
C        3.0908358795   -1.5603866796    0.6780505280
C        2.9819738502   -1.6937076584    2.0677286603
C        1.8505821361   -1.2086849590    2.7499158375
C        0.8228012431   -0.6013054949    1.9982718938
C        0.9337142643   -0.4703490009    0.6093680241
H        0.1321159662   -0.0054483774    0.0417324501
H       -0.0838842223   -0.2448963562    2.4799961304
C        1.7320799397   -1.3605367496    4.2090372779
O        2.4827995999   -2.0780554326    4.8083043997
O        0.8064534336   -0.6146942322    4.8726871738
H        0.7703461006    0.2910990003    4.5467632775
H        3.7807965549   -2.1795570405    2.6243885550
H        3.9708242689   -1.9392098993    0.1658887251
15   

H        2.1034272622   -0.8647329817   -1.1265611674
C        2.0299440019   -0.9618851576   -0.0466428690
C        3.0549652259   -1.5824818603    0.6727591999
C        2.9596141769   -1.7129572286    2.0635116769
C        1.8403921921   -1.2166609455    2.7574640114
C        0.8086372320   -0.6030556773    2.0161181963
C        0.9059066410   -0.4755945646    0.6256805914
H        0.1022850336   -0.0056276480    0.0650846413
H       -0.0911836095   -0.2394320262    2.5047690197
C        1.7446312744   -1.3600023303    4.2189677666
O        2.4629322401   -2.1234549509    4.8019628397
O        0.8796504269   -0.5710367319    4.8998210819
H        0.7136785513    0.2641547569    4.4462994831
H        3.7609913118   -2.2031282137    2.6127855635
H        3.9269203475   -1.9684245625    0.1521626615
15   

H        2.0483712950   -0.9004106994   -1.1277967948
C        1.9860111886   -0.9912925901   -0.0466180578
C        3.0102236954   -1.6234080415    0.6635122896
C        2.9298568958   -1.7445983774    2.0558591713
C        1.8278832929   -1.2264036983    2.7613005229
C        0.7957474516   -0.6018674141    2.0292944609
C        0.8776480308   -0.4847293935    0.6367657752
H        0.0748297838   -0.0057050734    0.0827150965
H       -0.0926450826   -0.2202696154    2.5243671897
C        1.7595380070   -1.3521456080    4.2260588572
O        2.4386596347   -2.1607815522    4.7957903969
O        0.9540626887   -0.5217672158    4.9195987469
H        0.6435407285    0.2201966115    4.3848134531
H        3.7315661257   -2.2416884676    2.5984802572
H        3.8706035812   -2.0242030809    0.1348838987
15   

H        1.9917915141   -0.9392917816   -1.1330658831
C        1.9428056218   -1.0198663267   -0.0503772208
C        2.9616868903   -1.6703969027    0.6501049101
C        2.8991579621   -1.7770344209    2.0443351589
C        1.8214339184   -1.2257538798    2.7626950474
C        0.7944340400   -0.5812686880    2.0399399228
C        0.8580570661   -0.4798258851    0.6450023339
H        0.0601677476    0.0153258927    0.0980783454
H       -0.0754943067   -0.1674581417    2.5406504607
C        1.7842938436   -1.3319329438    4.2312348889
O        2.4463763271   -2.1623277464    4.7902588936
O        1.0071194014   -0.4880788124    4.9361972834
H        0.5258321485    0.1307977126    4.3713620098
H        3.6984680773   -2.2865870860    2.5789349043
H        3.8049745659   -2.0954899919    0.1129514912
