15   

H        2.1271729512   -1.0610759082   -1.2209014157
C        1.9701895349   -1.0475293402   -0.1458266692
C        3.0517428354   -1.2090819431    0.7250384917
C        2.8496089340   -1.1921315220    2.1114825651
C        1.5750277870   -1.0076546219    2.6408534493
C        0.4892325244   -0.8565616183    1.7591072339
C        0.6850928969   -0.8725808929    0.3736033713
H       -0.1620507014   -0.7512111855   -0.2955391333
H       -0.5139330474   -0.7261669743    2.1592566041
C        1.3363210858   -1.0078906867    4.1002309048
O        0.2532050539   -1.1124340541    4.6203452440
O        2.4619734184   -0.8943809508    4.8444932770
H        2.1478009199   -0.9106874601    5.7603516919
H        3.7101017027   -1.3264420650    2.7620970114
H        4.0522053792   -1.3500598640    0.3259772326
15   

H        2.1246495996   -1.0335581667   -1.2187924219
C        1.9683908974   -1.0309822084   -0.1435314190
C        3.0460755484   -1.2339523388    0.7240822888
C        2.8439259868   -1.2315912278    2.1105048385
C        1.5758537613   -1.0141836917    2.6412106212
C        0.4920515155   -0.8312664841    1.7648207097
C        0.6874149643   -0.8324168722    0.3789799038
H       -0.1568487395   -0.6835758896   -0.2882392610
H       -0.5072636287   -0.6894663704    2.1703975795
C        1.3412581693   -1.0533494998    4.1018494937
O        0.3073782575   -1.3862224383    4.6242210238
O        2.4261755765   -0.7149017406    4.8376132829
H        2.1290468239   -0.7916223466    5.7560150163
H        3.6941599541   -1.4007060334    2.7666500131
H        4.0421698410   -1.3970807455    0.3225634434
15   

H        2.1177449368   -1.0080962082   -1.2164917926
C        1.9639255364   -1.0165762503   -0.1409094659
C        3.0381742228   -1.2615943699    0.7207678719
C        2.8382729610   -1.2736887314    2.1073345668
C        1.5785464729   -1.0245832249    2.6418253198
C        0.4961199590   -0.8062762240    1.7737746446
C        0.6889192439   -0.7926001014    0.3874307102
H       -0.1526107004   -0.6144353474   -0.2760274948
H       -0.4980997674   -0.6504512012    2.1861060386
C        1.3535898644   -1.0994205047    4.1052576715
O        0.4186272776   -1.6454773707    4.6319184925
O        2.3541353695   -0.5472881870    4.8298454000
H        2.0881510112   -0.6791289878    5.7514258903
H        3.6787888602   -1.4750765083    2.7669378076
H        4.0284918450   -1.4467005315    0.3145360927
15   

H        2.1067605497   -0.9837236515   -1.2155332225
C        1.9581514240   -1.0062203825   -0.1394207187
C        3.0296494017   -1.2973249866    0.7117954529
C        2.8360243652   -1.3272288295    2.0988935466
C        1.5870257975   -1.0499551465    2.6422064415
C        0.5058422276   -0.7862416633    1.7866925574
C        0.6923847431   -0.7543507995    0.3996203908
H       -0.1466319978   -0.5407496500   -0.2565022842
H       -0.4808916171   -0.6098392545    2.2079207307
C        1.3771931461   -1.1498765936    4.1105319093
O        0.5893773061   -1.8830917488    4.6473898020
O        2.2370582600   -0.3838098947    4.8190323993
H        2.0116280996   -0.5557917437    5.7446718905
H        3.6699136806   -1.5622554150    2.7556338145
H        4.0120832289   -1.5040851150    0.2969632967
15   

H        2.0896330554   -0.9507904659   -1.2157595473
C        1.9514577227   -0.9933123580   -0.1388610683
C        3.0217380867   -1.3390446568    0.6934664416
C        2.8415350846   -1.3943120820    2.0815637010
C        1.6068433651   -1.0943036303    2.6431602318
C        0.5275842586   -0.7671067416    1.8080134049
C        0.7008689401   -0.7096706351    0.4199562253
H       -0.1361615225   -0.4497453543   -0.2218162446
H       -0.4463801451   -0.5603675893    2.2442929666
C        1.4183744819   -1.2028470139    4.1181755102
O        0.8236908824   -2.0837035743    4.6786892923
O        2.0538780513   -0.2230804360    4.7977141321
H        1.8716627294   -0.4128239823    5.7292574295
H        3.6732241641   -1.6688434889    2.7254200655
H        3.9926313150   -1.5674538999    0.2631016211
15   

H        2.0780868603   -0.9098247844   -1.2148586069
C        1.9525835154   -0.9734706514   -0.1374505061
C        3.0178275686   -1.3854871778    0.6707002825
C        2.8537545594   -1.4680159714    2.0594546257
C        1.6377601395   -1.1415041076    2.6452017903
C        0.5679591428   -0.7298468982    1.8353318097
C        0.7247766866   -0.6452632491    0.4467129290
H       -0.1065118743   -0.3263709995   -0.1756232411
H       -0.3858865434   -0.4777537143    2.2914383544
C        1.4730089987   -1.2405544486    4.1258747246
O        1.1012532053   -2.2147593928    4.7218263265
O        1.7928660259   -0.0917309525    4.7602209300
H        1.6470278643   -0.2803551533    5.6983165737
H        3.6824125410   -1.7907054674    2.6845548131
H        3.9726394049   -1.6427917165    0.2210765692
15   

H        2.0619299972   -0.8790496033   -1.2142884334
C        1.9514688621   -0.9557139129   -0.1360819107
C        3.0114372323   -1.4250710242    0.6471003787
C        2.8664447572   -1.5247666222    2.0368281587
C        1.6710777304   -1.1693990617    2.6487218174
C        0.6126023523   -0.6836220974    1.8642054427
C        0.7500733845   -0.5820560019    0.4747113975
H       -0.0749029999   -0.2118190029   -0.1272487423
H       -0.3175968310   -0.3865711389    2.3416220543
C        1.5383119488   -1.2544280516    4.1318157707
O        1.4097146879   -2.2666544531    4.7662480239
O        1.5123028853   -0.0369476843    4.7172109190
H        1.4075039758   -0.2213765244    5.6616541452
H        3.6920747575   -1.8895828117    2.6426977436
H        3.9478265472   -1.7126185448    0.1774794457
15   

H        2.0487281530   -0.8846210466   -1.2172488757
C        1.9501732172   -0.9588595677   -0.1377204621
C        3.0022849552   -1.4686811790    0.6303329437
C        2.8726607065   -1.5653425127    2.0217252364
C        1.6979208442   -1.1710126480    2.6518016138
C        0.6503152214   -0.6382453692    1.8810807024
C        0.7728984898   -0.5398082439    0.4900045312
H       -0.0447276204   -0.1354384781   -0.0998981192
H       -0.2602933065   -0.3018334282    2.3702924718
C        1.5964290045   -1.2427548451    4.1339544843
O        1.7085418184   -2.2410864406    4.7950790157
O        1.2701450370   -0.0543666779    4.6902020536
H        1.2142037596   -0.2364208962    5.6393661520
H        3.6927049639   -1.9612305120    2.6159929722
H        3.9210357964   -1.7898441816    0.1478197921
15   

H        2.0333481813   -0.9131398542   -1.2227799844
C        1.9445723041   -0.9746810858   -0.1416053666
C        2.9880041083   -1.5117232806    0.6193108918
C        2.8713850995   -1.5919213787    2.0127836059
C        1.7174240984   -1.1528007744    2.6543384806
C        0.6776825647   -0.5944716864    1.8881687287
C        0.7885130668   -0.5127325756    0.4950170665
H       -0.0224194685   -0.0880490697   -0.0898371709
H       -0.2191296281   -0.2253039975    2.3794633496
C        1.6441545613   -1.2154775829    4.1344176728
O        1.9849076384   -2.1537229375    4.8074671940
O        1.0718766478   -0.1194480248    4.6837196969
H        1.0708080618   -0.2971149576    5.6354741834
H        3.6854929423   -2.0098007009    2.6006347430
H        3.8902878953   -1.8671374138    0.1297716443
15   

H        2.0177215386   -0.9530384460   -1.2296520744
C        1.9381291725   -0.9963332018   -0.1468787583
C        2.9725888500   -1.5530640673    0.6115626669
C        2.8683765349   -1.6096800419    2.0070876944
C        1.7361895746   -1.1234446828    2.6558132027
C        0.7023971503   -0.5507016770    1.8890973046
C        0.8022461660   -0.4928420066    0.4939287391
H       -0.0027078964   -0.0551388482   -0.0896010656
H       -0.1835728216   -0.1515382097    2.3766153314
C        1.6838699788   -1.1792633719    4.1339537702
O        2.2303402313   -2.0124054923    4.8120087637
O        0.9059737087   -0.2185075218    4.6851734804
H        0.9568686403   -0.3830092911    5.6380258877
H        3.6777040575   -2.0441232414    2.5899185116
H        3.8587784884   -1.9425880052    0.1185777617
15   

H        1.9967623533   -0.9985489156   -1.2355066795
C        1.9271955479   -1.0218994953   -0.1514282954
C        2.9532645961   -1.5945607111    0.6058808602
C        2.8626774277   -1.6251127168    2.0031200482
C        1.7537231703   -1.0925346466    2.6572694761
C        0.7245635736   -0.5100195888    1.8889142595
C        0.8119452650   -0.4783032815    0.4920856429
H        0.0122840682   -0.0302803174   -0.0909041295
H       -0.1498626357   -0.0810753782    2.3718313778
C        1.7167859944   -1.1395533839    4.1348693982
O        2.4373567390   -1.8226228019    4.8195694351
O        0.7649315794   -0.3497067680    4.6851519274
H        0.8587994555   -0.4876100003    5.6390227343
H        3.6683853274   -2.0734523836    2.5805920389
H        3.8229864481   -2.0170559329    0.1107123024
15   

H        1.9716837907   -1.0475018342   -1.2388639868
C        1.9132133440   -1.0499014750   -0.1538816106
C        2.9316319579   -1.6363231663    0.6029275424
C        2.8559176633   -1.6392787990    2.0013721641
C        1.7711758701   -1.0614683951    2.6583320889
C        0.7462428326   -0.4710201671    1.8892632753
C        0.8193502473   -0.4666598968    0.4912754874
H        0.0247346902   -0.0093774349   -0.0914311357
H       -0.1134980052   -0.0118416528    2.3706635502
C        1.7452535820   -1.0947464362    4.1362315885
O        2.6010901807   -1.5895811598    4.8276185173
O        0.6531705555   -0.5093032190    4.6816360787
H        0.7779856614   -0.6089903824    5.6367401862
H        3.6566943188   -2.0997823961    2.5761517917
H        3.7841533568   -2.0910886423    0.1064277819
15   

H        1.9428081152   -1.0963260304   -1.2386207468
C        1.8962407341   -1.0779959931   -0.1532147279
C        2.9074101885   -1.6776607773    0.6032335729
C        2.8472829559   -1.6530115717    2.0022310415
C        1.7877701653   -1.0308317694    2.6592356365
C        0.7669193488   -0.4332576852    1.8913605496
C        0.8243408058   -0.4558365206    0.4928024758
H        0.0346409903    0.0102404387   -0.0896115975
H       -0.0752433588    0.0541576400    2.3761404406
C        1.7680236527   -1.0466950957    4.1378279895
O        2.7114770644   -1.3258307833    4.8353945750
O        0.5776512941   -0.6891169025    4.6743416080
H        0.7186262353   -0.7416467520    5.6309317386
H        3.6406252857   -2.1237622013    2.5789886703
H        3.7419410721   -2.1639323869    0.1060330595
15   

H        1.9153640081   -1.1385419079   -1.2355604920
C        1.8803413679   -1.1010626402   -0.1502143933
C        2.8824904952   -1.7163504007    0.6063618030
C        2.8371716160   -1.6662333475    2.0052864486
C        1.8045831785   -0.9994947031    2.6597614547
C        0.7894772556   -0.3928858411    1.8941242873
C        0.8314070851   -0.4399934306    0.4956123415
H        0.0476216997    0.0360741037   -0.0866954000
H       -0.0337942267    0.1199067483    2.3852616603
C        1.7840533419   -0.9976994261    4.1397371598
O        2.7616547916   -1.0494982360    4.8426783265
O        0.5419983044   -0.8781441894    4.6641639108
H        0.6825573429   -0.8801471549    5.6221920835
H        3.6205535788   -2.1476981026    2.5866194681
H        3.6978777444   -2.2341902426    0.1092897548
15   

H        1.8897885091   -1.1733116119   -1.2310667614
C        1.8653334788   -1.1182843367   -0.1461792143
C        2.8555595814   -1.7517523246    0.6116652815
C        2.8236111673   -1.6785019759    2.0100256110
C        1.8194261163   -0.9679417384    2.6602269800
C        0.8133159150   -0.3486616784    1.8959989326
C        0.8408643582   -0.4178542485    0.4980398033
H        0.0649307122    0.0702586620   -0.0847937044
H        0.0095143866    0.1890699481    2.3926629038
C        1.7934632355   -0.9448832003    4.1430370010
O        2.7502839752   -0.7666230362    4.8516483970
O        0.5468182896   -1.0710165770    4.6534116447
H        0.6708100048   -1.0220358179    5.6123851703
H        3.5954065012   -2.1730652242    2.5954338582
H        3.6506069147   -2.3015119153    0.1159354720
15   

H        1.8737394215   -1.2017561487   -1.2273502353
C        1.8548440910   -1.1316265202   -0.1432234757
C        2.8264986817   -1.7872613947    0.6201856236
C        2.8015836751   -1.6941567534    2.0176222523
C        1.8244835839   -0.9416422295    2.6591073548
C        0.8359083851   -0.3018935404    1.8917938650
C        0.8555568980   -0.3900063414    0.4947757849
H        0.0933597926    0.1148179821   -0.0919272723
H        0.0524910832    0.2650285778    2.3883476765
C        1.7910699962   -0.8900048866    4.1451899715
O        2.6770102737   -0.4859195492    4.8509845332
O        0.5974165513   -1.2735598302    4.6513678924
H        0.6959079328   -1.1757331412    5.6094467189
H        3.5577835220   -2.2057506361    2.6082046128
H        3.6011895978   -2.3695059049    0.1293566932
15   

H        1.8759943022   -1.2160235880   -1.2250215966
C        1.8528325282   -1.1344743303   -0.1417757175
C        2.7940656074   -1.8190166389    0.6345525936
C        2.7635605273   -1.7112254378    2.0308891714
C        1.8088804705   -0.9196584023    2.6566764989
C        0.8545996662   -0.2450485223    1.8781747209
C        0.8795040762   -0.3474881125    0.4821827641
H        0.1425634667    0.1822970906   -0.1146954944
H        0.0943203646    0.3599501275    2.3653999590
C        1.7699864762   -0.8345619914    4.1451889787
O        2.5399579867   -0.2183024690    4.8314923067
O        0.7111701761   -1.4888485174    4.6709642100
H        0.7857274344   -1.3482276533    5.6257609473
H        3.4961621125   -2.2446379877    2.6313886917
H        3.5494041226   -2.4346844602    0.1544805095
15   

H        1.9106465541   -1.2132796411   -1.2245240988
C        1.8684754658   -1.1259017289   -0.1423056362
C        2.7633789189   -1.8466282036    0.6560121898
C        2.7082077333   -1.7317931572    2.0510529156
C        1.7676188039   -0.9061614372    2.6526979286
C        0.8706339534   -0.1813077681    1.8528038242
C        0.9201931458   -0.2911093693    0.4579934323
H        0.2238368623    0.2723220672   -0.1565537090
H        0.1363160437    0.4686378597    2.3215826953
C        1.7235761227   -0.7864501195    4.1403386036
O        2.3327034541    0.0170083868    4.7929140153
O        0.9060189468   -1.6989712576    4.7090252479
H        0.9623962834   -1.5211177490    5.6587941767
H        3.4062956700   -2.2911159462    2.6686159152
H        3.5024428314   -2.4949347585    0.1939343914
15   

H        1.9514608076   -1.2012025041   -1.2237354283
C        1.8846854554   -1.1143255307   -0.1427153952
C        2.7255928647   -1.8757526376    0.6763715844
C        2.6387882206   -1.7617532588    2.0698602660
C        1.7112776663   -0.9050374246    2.6491887030
C        0.8813240573   -0.1260217260    1.8284331011
C        0.9626029889   -0.2353286041    0.4350648887
H        0.3135531271    0.3652757712   -0.1958564318
H        0.1751447958    0.5660271780    2.2801705850
C        1.6627576143   -0.7599503163    4.1322825295
O        2.0749834754    0.1840236460    4.7509227253
O        1.1553093603   -1.8515644267    4.7458418008
H        1.1934002459   -1.6420451751    5.6901027385
H        3.2972787558   -2.3501738914    2.7037187786
H        3.4482923809   -2.5539656957    0.2316798063
15   

H        1.9884322630   -1.1981717738   -1.2223635672
C        1.8991830449   -1.1130899645   -0.1428245181
C        2.6940528885   -1.9055303719    0.6924233187
C        2.5786730363   -1.7936296870    2.0840381168
C        1.6632396550   -0.9118325715    2.6466059170
C        0.8864723011   -0.0964226265    1.8086645316
C        0.9963928193   -0.2033946364    0.4171693610
H        0.3858289669    0.4242338534   -0.2257659153
H        0.1995298190    0.6232946256    2.2471981872
C        1.5962129775   -0.7529458054    4.1231748595
O        1.7812220763    0.2768979128    4.7161909590
O        1.3883433969   -1.9219439390    4.7700386562
H        1.3885213209   -1.6850545458    5.7087017285
H        3.2045959574   -2.4055556568    2.7287735455
H        3.4041910516   -2.6057744920    0.2618729131
15   

H        2.0149218443   -1.1944440301   -1.2224271066
C        1.9110581317   -1.1123889497   -0.1439610873
C        2.6681556270   -1.9321833187    0.6994086789
C        2.5343863698   -1.8244260447    2.0897928548
C        1.6372779206   -0.9181442789    2.6452156359
C        0.8985685119   -0.0769153603    1.7970061491
C        1.0272053140   -0.1795215338    0.4069584323
H        0.4454535396    0.4694417607   -0.2415040805
H        0.2252661226    0.6605113270    2.2278625645
C        1.5411089085   -0.7595789055    4.1160822823
O        1.4896697931    0.2955813614    4.6937461185
O        1.5887137761   -1.9344696072    4.7856600758
H        1.5334304342   -1.6844554547    5.7194035903
H        3.1353319771   -2.4599893956    2.7355668514
H        3.3639639783   -2.6510314605    0.2761763216
15   

H        2.0401905395   -1.1866235309   -1.2236677200
C        1.9256881529   -1.1083725407   -0.1459963291
C        2.6489149079   -1.9537306452    0.7011561849
C        2.5017305012   -1.8517560583    2.0907516065
C        1.6270662862   -0.9213713044    2.6441669162
C        0.9177631578   -0.0597452091    1.7893951394
C        1.0602876083   -0.1566558224    0.4005041936
H        0.5019665425    0.5104021687   -0.2502088588
H        0.2537795877    0.6897796581    2.2143291520
C        1.4956755607   -0.7734985858    4.1107632085
O        1.2113619973    0.2520745689    4.6764041840
O        1.7686323358   -1.9065751239    4.7996559454
H        1.6502224186   -1.6594021324    5.7283743609
H        3.0806732938   -2.5125348689    2.7312363559
H        3.3291001319   -2.6893841484    0.2814013984
15   

H        2.0648550483   -1.1740143404   -1.2244986259
C        1.9406970712   -1.1009781512   -0.1475290250
C        2.6308888663   -1.9717995539    0.7007446919
C        2.4713793375   -1.8776009104    2.0896492677
C        1.6211153547   -0.9241296484    2.6435138879
C        0.9377950212   -0.0436268138    1.7850007096
C        1.0931448281   -0.1330635051    0.3971583627
H        0.5565613277    0.5511376789   -0.2540570067
H        0.2815444672    0.7154854870    2.2051758741
C        1.4546566499   -0.7934309211    4.1070616868
O        0.9511186087    0.1524007142    4.6606327138
O        1.9392672033   -1.8416881035    4.8143195118
H        1.7607620055   -1.6121238156    5.7380094117
H        3.0265236348   -2.5652979663    2.7226373032
H        3.2946142216   -2.7230497005    0.2822451891
15   

H        2.0869134285   -1.1573567322   -1.2238971875
C        1.9531978698   -1.0915836979   -0.1476030317
C        2.6109763052   -1.9883130791    0.6991181638
C        2.4389648236   -1.9040534453    2.0872114912
C        1.6135344168   -0.9298471498    2.6431869150
C        0.9544077762   -0.0303193269    1.7846256749
C        1.1225172103   -0.1098426151    0.3977283325
H        0.6071071582    0.5915444573   -0.2523109450
H        0.3061437140    0.7364525756    2.2033545136
C        1.4158270656   -0.8205743991    4.1043664813
O        0.7150869652    0.0001981621    4.6434598662
O        2.0995468224   -1.7382239566    4.8286323067
H        1.8698878384   -1.5386220988    5.7479960347
H        2.9660070419   -2.6178585417    2.7151962397
H        3.2580459260   -2.7535749279    0.2799109515
