15   

H        1.8844835713   -1.1974137557   -1.1372588366
C        1.8989258166   -1.1491095354   -0.0516466235
C        2.9606299166   -1.7132808184    0.6606464662
C        2.9827072136   -1.6488153988    2.0589069913
C        1.9377001275   -1.0273821686    2.7676383076
C        0.8787644492   -0.4514133295    2.0340866739
C        0.8609359821   -0.5150106089    0.6358010470
H        0.0425690784   -0.0641637015    0.0808539664
H        0.0688493309    0.0724076954    2.5336907499
C        1.9680897212   -0.9741908872    4.2380961931
O        2.9986689886   -1.1458832446    4.8281131912
O        0.8177008376   -0.7689023661    4.9117254249
H        0.0392105000   -0.8750360873    4.3499263529
H        3.8160618977   -2.0885559581    2.6033535978
H        3.7727304519   -2.2015711397    0.1292299904
15   

H        1.8836713577   -1.2630006671   -1.1392466389
C        1.8975122547   -1.2018955282   -0.0542874411
C        2.9496606530   -1.7733297626    0.6666805256
C        2.9716336778   -1.6911790347    2.0642056943
C        1.9362435622   -1.0429544157    2.7629973616
C        0.8870032885   -0.4610376746    2.0206422129
C        0.8685933790   -0.5432218727    0.6235269041
H        0.0576308706   -0.0865587683    0.0625072647
H        0.0863569213    0.0823198055    2.5150179607
C        1.9669692172   -0.9570638609    4.2318026208
O        2.9798986341   -1.1865614993    4.8318058916
O        0.8201798788   -0.6788194542    4.8963881059
H        0.0378185925   -0.9607088413    4.4072844056
H        3.7987828199   -2.1346434660    2.6149672555
H        3.7551664718   -2.2796983888    0.1422480300
15   

H        1.8958455542   -1.3125142715   -1.1453672014
C        1.9057383053   -1.2419828638   -0.0609626949
C        2.9499767219   -1.8156650282    0.6699175086
C        2.9671762362   -1.7205257738    2.0668725621
C        1.9351394797   -1.0554425256    2.7547954906
C        0.8935586839   -0.4730719777    2.0023554892
C        0.8794314894   -0.5687247700    0.6062336557
H        0.0740200578   -0.1107341826    0.0383783790
H        0.0955348317    0.0802641824    2.4903527250
C        1.9609908645   -0.9456829309    4.2222495775
O        2.9519525252   -1.2278115673    4.8353835352
O        0.8187592339   -0.5923984266    4.8733959186
H        0.0425716754   -1.0278574338    4.5047499681
H        3.7891112156   -2.1644892327    2.6248662116
H        3.7535233747   -2.3330232457    0.1533426775
15   

H        1.9219832396   -1.3339085781   -1.1566109079
C        1.9244061220   -1.2605714415   -0.0723833007
C        2.9607615865   -1.8366296164    0.6679753740
C        2.9681688577   -1.7376341806    2.0649098088
C        1.9345614543   -1.0648806044    2.7430508929
C        0.9005073362   -0.4818479252    1.9810000956
C        0.8957435758   -0.5817083868    0.5852590268
H        0.0953998682   -0.1228611827    0.0110254734
H        0.0999433999    0.0732093261    2.4631302002
C        1.9493363838   -0.9460740059    4.2102333606
O        2.9157964688   -1.2750075839    4.8379326195
O        0.8161977537   -0.5119863117    4.8460295134
H        0.0570666120   -1.0666835643    4.6424416260
H        3.7843983904   -2.1830219218    2.6299493842
H        3.7659065603   -2.3585387254    0.1586081105
15   

H        1.9614604611   -1.3224406451   -1.1733836358
C        1.9526700996   -1.2536263161   -0.0889316944
C        2.9803787980   -1.8339714598    0.6601884564
C        2.9726472681   -1.7413431489    2.0576724578
C        1.9329481673   -1.0694611313    2.7274542318
C        0.9072887875   -0.4834554640    1.9565384311
C        0.9172697443   -0.5772526379    0.5605042030
H        0.1222422168   -0.1165773269   -0.0195396420
H        0.0997811249    0.0659306447    2.4336921290
C        1.9291472176   -0.9585095122    4.1957072780
O        2.8728462897   -1.3253088097    4.8365547622
O        0.8133990387   -0.4410092316    4.8144934309
H        0.0849154923   -1.0676539482    4.8165609711
H        3.7819484685   -2.1906332599    2.6293865669
H        3.7902655577   -2.3546247872    0.1571890700
15   

H        2.0124620279   -1.2864667428   -1.1912255000
C        1.9887816700   -1.2287869197   -0.1063854591
C        3.0061153881   -1.8165434029    0.6511128225
C        2.9781691218   -1.7394057887    2.0493702301
C        1.9290762826   -1.0744467864    2.7116038397
C        0.9136968448   -0.4819114880    1.9321023745
C        0.9434591646   -0.5606491229    0.5354839313
H        0.1548975412   -0.0960717522   -0.0501631976
H        0.0962658632    0.0568966607    2.4044493249
C        1.8997871848   -0.9847667810    4.1816034081
O        2.8238412094   -1.3846559978    4.8327016725
O        0.8135931305   -0.3839986397    4.7813436128
H        0.1343853978   -1.0226276622    5.0130069205
H        3.7788234340   -2.1957589629    2.6274547464
H        3.8230940916   -2.3317449462    0.1541020438
15   

H        2.0645148090   -1.2497894072   -1.2060672603
C        2.0244690758   -1.2045427927   -0.1211520726
C        3.0313926271   -1.7988785594    0.6450827675
C        2.9814314935   -1.7388915159    2.0436504602
C        1.9210692407   -1.0834322988    2.6976862932
C        0.9160167639   -0.4850807071    1.9090874659
C        0.9674182607   -0.5471054877    0.5123208485
H        0.1854440987   -0.0791739044   -0.0793889469
H        0.0874540695    0.0417484901    2.3755845284
C        1.8644636305   -1.0161122555    4.1688072952
O        2.7727895320   -1.4447172497    4.8270557774
O        0.8119089140   -0.3497498152    4.7476210989
H        0.2118246188   -0.9482730340    5.2015791505
H        3.7735128942   -2.2016864363    2.6282179162
H        3.8568823223   -2.3067032589    0.1546819381
15   

H        2.1054585149   -1.2293213351   -1.2160851548
C        2.0505443439   -1.1936073990   -0.1314905673
C        3.0484492155   -1.7918719783    0.6434522262
C        2.9786918785   -1.7449711802    2.0417456658
C        1.9079315054   -1.0974963375    2.6870041851
C        0.9117482314   -0.4960106637    1.8893576858
C        0.9825230985   -0.5455230775    0.4929999873
H        0.2062988012   -0.0760422480   -0.1049736647
H        0.0733142456    0.0209149109    2.3493630710
C        1.8283876185   -1.0446254665    4.1582480503
O        2.7179557128   -1.5064188120    4.8231435473
O        0.8069598146   -0.3320784798    4.7179659736
H        0.3143662119   -0.8554760994    5.3592634566
H        3.7635647278   -2.2116531474    2.6327668375
H        3.8820081094   -2.2931065385    0.1600462943
15   

H        2.1395069738   -1.2160551400   -1.2221904754
C        2.0722359040   -1.1858971706   -0.1381393037
C        3.0670535345   -1.7782323620    0.6453619110
C        2.9811072870   -1.7386691385    2.0430523557
C        1.8969722451   -1.1044960410    2.6790795026
C        0.9035587591   -0.5098821305    1.8727678495
C        0.9906978501   -0.5516432130    0.4771425442
H        0.2160971220   -0.0875790930   -0.1271111735
H        0.0537543896   -0.0056956679    2.3261863948
C        1.7990665535   -1.0595178949    4.1496603314
O        2.6824184080   -1.5241133775    4.8236025509
O        0.7732467616   -0.3583028982    4.6950932323
H        0.4261062690   -0.8001900064    5.4800685747
H        3.7633081284   -2.2012064540    2.6407305679
H        3.9105137636   -2.2695222724    0.1690293660
15   

H        2.1597687221   -1.2033998153   -1.2262337536
C        2.0832716306   -1.1788273142   -0.1426623294
C        3.0755137225   -1.7681152301    0.6464388011
C        2.9774422431   -1.7359853066    2.0435511445
C        1.8837186432   -1.1121811922    2.6732774268
C        0.8926055799   -0.5213422548    1.8614183408
C        0.9918892067   -0.5555279096    0.4664158375
H        0.2186539365   -0.0946687383   -0.1420084147
H        0.0346204222   -0.0271843268    2.3105994508
C        1.7732893668   -1.0739759448    4.1431246634
O        2.6438080444   -1.5545251973    4.8245058725
O        0.7399032048   -0.3917489861    4.6808940055
H        0.5371981302   -0.7272174910    5.5654997440
H        3.7573426716   -2.1965571346    2.6456725192
H        3.9261438410   -2.2515707768    0.1748890922
15   

H        2.1789658049   -1.1891804149   -1.2286798919
C        2.0952150978   -1.1693755475   -0.1455524720
C        3.0879674702   -1.7519993532    0.6479201043
C        2.9803159220   -1.7262617927    2.0444847389
C        1.8762588609   -1.1158465060    2.6690379081
C        0.8843828125   -0.5322803350    1.8529576898
C        0.9934507177   -0.5596224503    0.4585602039
H        0.2193244585   -0.1046461888   -0.1531446364
H        0.0177763108   -0.0501312170    2.2987463189
C        1.7556163487   -1.0842057432    4.1380139996
O        2.6168335977   -1.5726145196    4.8267461092
O        0.6983563091   -0.4452919620    4.6712270085
H        0.6316778721   -0.6531536498    5.6154453424
H        3.7600921812   -2.1822261071    2.6502287629
H        3.9461092970   -2.2257406250    0.1801524153
15   

H        2.1947375934   -1.1718993476   -1.2287321656
C        2.1059674981   -1.1574190500   -0.1459220066
C        3.1015894020   -1.7322259307    0.6496946972
C        2.9872789250   -1.7136386560    2.0458615550
C        1.8733664356   -1.1187168730    2.6677320648
C        0.8783521110   -0.5435259287    1.8495566918
C        0.9943767049   -0.5631389187    0.4556082496
H        0.2175955526   -0.1149158897   -0.1577180868
H        0.0034217434   -0.0748250593    2.2934683792
C        1.7453979085   -1.0948666235    4.1361303246
O        2.6008502046   -1.5892391563    4.8282333557
O        0.6573499088   -0.5109972470    4.6661220628
H        0.6999389110   -0.5653211222    5.6333332705
H        3.7687698740   -2.1642752439    2.6533679544
H        3.9668080110   -2.1948619462    0.1838599913
15   

H        2.2009828700   -1.1492769337   -1.2274091211
C        2.1103889220   -1.1418734495   -0.1446767679
C        3.1112082775   -1.7098777716    0.6492616253
C        2.9944058520   -1.7007235266    2.0452979520
C        1.8725228816   -1.1226128943    2.6688220192
C        0.8719836001   -0.5547466884    1.8522415021
C        0.9908379242   -0.5643538748    0.4584089712
H        0.2096739119   -0.1221318481   -0.1537022463
H       -0.0099692926   -0.1004086245    2.2971438977
C        1.7418525834   -1.1091454935    4.1372193448
O        2.5956212908   -1.6110535645    4.8255198551
O        0.6233568342   -0.5811941972    4.6668987331
H        0.7380839982   -0.4603478616    5.6215896631
H        3.7795794620   -2.1469065246    2.6513535837
H        3.9821299221   -2.1604590156    0.1822318231
15   

H        2.2026993230   -1.1255979050   -1.2237544668
C        2.1119345820   -1.1268816902   -0.1410066819
C        3.1182440724   -1.6906750437    0.6489068929
C        3.0011366641   -1.6930426363    2.0449203294
C        1.8732992560   -1.1310618118    2.6726769944
C        0.8668939487   -0.5679371669    1.8599347259
C        0.9863283465   -0.5656049854    0.4660954613
H        0.2005700804   -0.1274413690   -0.1430519963
H       -0.0207094685   -0.1274553707    2.3074056605
C        1.7425057022   -1.1297618481    4.1413487381
O        2.5948292523   -1.6432847721    4.8216789977
O        0.5999696414   -0.6453359559    4.6728183693
H        0.7515957899   -0.3386902404    5.5778783972
H        3.7903776944   -2.1366863129    2.6475811889
H        3.9934786517   -2.1295407161    0.1787778137
15   

H        2.2024851936   -1.1019382818   -1.2185550451
C        2.1119046587   -1.1140186078   -0.1358496057
C        3.1223042695   -1.6781122938    0.6485535104
C        3.0053617713   -1.6947164093    2.0444544287
C        1.8737117977   -1.1466494958    2.6777360717
C        0.8627496053   -0.5838412381    1.8704090125
C        0.9821293282   -0.5671800559    0.4766450344
H        0.1928289006   -0.1297578137   -0.1284590754
H       -0.0290760200   -0.1558056435    2.3213996079
C        1.7438508674   -1.1595768666    4.1464720475
O        2.5897002815   -1.6921276373    4.8182492012
O        0.5891191364   -0.6919566598    4.6844649821
H        0.7563617458   -0.2017551547    5.4991357891
H        3.7976027490   -2.1390558674    2.6427142670
H        4.0004604880   -2.1065262750    0.1742258396
15   

H        2.1953640982   -1.0663908849   -1.2108950022
C        2.1066677435   -1.0918976269   -0.1282506316
C        3.1239664558   -1.6550138505    0.6478127916
C        3.0094460949   -1.6892334681    2.0435220791
C        1.8734326646   -1.1600138646    2.6850125829
C        0.8549410874   -0.5989583283    1.8860772327
C        0.9721591684   -0.5643055008    0.4924006259
H        0.1772377723   -0.1287100362   -0.1066531825
H       -0.0417686321   -0.1876435358    2.3427176210
C        1.7466811696   -1.1926938506    4.1535312613
O        2.5937540428   -1.7314971790    4.8159724646
O        0.5843044840   -0.7355723178    4.7051138892
H        0.7466948565   -0.0720224771    5.3842213722
H        3.8068028014   -2.1332901019    2.6352648057
H        4.0054412436   -2.0694124487    0.1671738296
15   

H        2.1905525381   -1.0213791485   -1.1987895089
C        2.1017251000   -1.0645386904   -0.1166902414
C        3.1207595779   -1.6369247329    0.6502444558
C        3.0057359452   -1.6948492121    2.0450564597
C        1.8682771393   -1.1791119413    2.6946411500
C        0.8474483070   -0.6093530388    1.9051308373
C        0.9649147318   -0.5516495275    0.5121778215
H        0.1680588134   -0.1106890191   -0.0803916017
H       -0.0525465688   -0.2119802988    2.3675037988
C        1.7415560525   -1.2388603941    4.1617148102
O        2.5707986420   -1.8107868799    4.8154003260
O        0.6010662935   -0.7318610651    4.7354519092
H        0.7746081666    0.0716806668    5.2340629708
H        3.8038350359   -2.1467374113    2.6299719023
H        4.0036933278   -2.0406436843    0.1631601273
15   

H        2.1933831938   -0.9585790587   -1.1807838578
C        2.1027780035   -1.0221864204   -0.0998072489
C        3.1220340268   -1.6064592955    0.6578018888
C        3.0042645786   -1.6921072631    2.0508739223
C        1.8645720558   -1.1913409027    2.7078774402
C        0.8429117859   -0.6101880971    1.9280136552
C        0.9629582202   -0.5253048731    0.5366071057
H        0.1652643628   -0.0772776802   -0.0495671426
H       -0.0614239851   -0.2288767430    2.3953441687
C        1.7335516212   -1.2860274488    4.1720040923
O        2.5470794022   -1.8862187993    4.8167186007
O        0.6300193536   -0.7166803774    4.7707449260
H        0.8012632659    0.1859191574    5.0515072455
H        3.8016615765   -2.1543636471    2.6287703845
H        4.0068372191   -1.9987433313    0.1647064672
15   

H        2.1961046383   -0.8972028332   -1.1598403572
C        2.1040441013   -0.9792986935   -0.0801951309
C        3.1228028573   -1.5758631163    0.6684089781
C        3.0027480392   -1.6867978814    2.0594092077
C        1.8620077581   -1.1980330359    2.7233579083
C        0.8401442085   -0.6051489108    1.9526605119
C        0.9623485255   -0.4955641169    0.5631043533
H        0.1643475687   -0.0402781097   -0.0171115580
H       -0.0679716525   -0.2380950737    2.4240058063
C        1.7266546409   -1.3254933139    4.1840171593
O        2.5229916889   -1.9593575847    4.8163591587
O        0.6772039887   -0.6878346228    4.8066287560
H        0.8181736138    0.2612559474    4.8588873728
H        3.7989648490   -2.1598004953    2.6303683804
H        4.0085948563   -1.9589532466    0.1697915830
15   

H        2.1842895727   -0.8585645021   -1.1414684986
C        2.0943960623   -0.9525304287   -0.0625693898
C        3.1143889907   -1.5582388106    0.6768481229
C        2.9970465763   -1.6853244683    2.0665822502
C        1.8585876436   -1.2025942341    2.7386684797
C        0.8345101942   -0.6014846384    1.9771895435
C        0.9539635098   -0.4762292606    0.5886183940
H        0.1545089576   -0.0157737111    0.0144336743
H       -0.0748341455   -0.2435699643    2.4530363892
C        1.7265393064   -1.3498761132    4.1973771368
O        2.5034087052   -2.0224237029    4.8141474954
O        0.7378277358   -0.6540267079    4.8415011394
H        0.8070926336    0.2927333846    4.6857291610
H        3.7938485304   -2.1659188384    2.6305027097
H        3.9988891668   -1.9363321644    0.1720636120
15   

H        2.1519501520   -0.8483827332   -1.1305814067
C        2.0684061739   -0.9471850363   -0.0515706559
C        3.0908402319   -1.5603820128    0.6780518674
C        2.9819769255   -1.6937042065    2.0677297929
C        1.8505845543   -1.2086821369    2.7499163240
C        0.8228044268   -0.6013018989    1.9982719372
C        0.9337187316   -0.4703441832    0.6093682943
H        0.1321209046   -0.0054431628    0.0417323752
H       -0.0838816251   -0.2448934188    2.4799955606
C        1.7320799397   -1.3605367496    4.2090372779
O        2.4827995999   -2.0780554326    4.8083043997
O        0.8064534336   -0.6146942322    4.8726871738
H        0.7703461006    0.2910990003    4.5467632775
H        3.7807989533   -2.1795543831    2.6243899611
H        3.9708290008   -1.9392049585    0.1658905168
15   

H        2.1034315058   -0.8647292453   -1.1265605471
C        2.0299475785   -0.9618818970   -0.0466423354
C        3.0549683097   -1.5824789989    0.6727600973
C        2.9596163306   -1.7129551183    2.0635124483
C        1.8403938790   -1.2166592011    2.7574642889
C        0.8086394646   -0.6030534537    2.0161180958
C        0.9059098088   -0.4755915862    0.6256806326
H        0.1022885571   -0.0056244036    0.0650843933
H       -0.0911817945   -0.2394301955    2.5047684471
C        1.7446312744   -1.3600023303    4.2189677666
O        2.4629322401   -2.1234549509    4.8019628397
O        0.8796504269   -0.5710367319    4.8998210819
H        0.7136785513    0.2641547569    4.4462994831
H        3.7609929752   -2.2031266197    2.6127865867
H        3.9269237134   -1.9684215444    0.1521639173
15   

H        2.0483733515   -0.9004087285   -1.1277965297
C        1.9860129481   -0.9912908764   -0.0466178321
C        3.0102251520   -1.6234066739    0.6635126512
C        2.9298579149   -1.7445974203    2.0558594773
C        1.8278841574   -1.2264028121    2.7613006354
C        0.7957486615   -0.6018661125    2.0292944279
C        0.8776496748   -0.4847276902    0.6367658102
H        0.0748316402   -0.0057031168    0.0827150413
H       -0.0926440081   -0.2202683797    2.5243669631
C        1.7595380070   -1.3521456080    4.2260588572
O        2.4386596347   -2.1607815522    4.7957903969
O        0.9540626887   -0.5217672158    4.9195987469
H        0.6435407285    0.2201966115    4.3848134531
H        3.7315668653   -2.2416878726    2.5984806434
H        3.8706051125   -2.0242017182    0.1348843889
15   

H        1.9917912240   -0.9392916670   -1.1330658784
C        1.9428053983   -1.0198662379   -0.0503772171
C        2.9616868257   -1.6703966307    0.6501048573
C        2.8991579842   -1.7770341797    2.0443351105
C        1.8214338564   -1.2257538668    2.7626950468
C        0.7944338201   -0.5812688650    2.0399399745
C        0.8580567639   -0.4798260175    0.6450023868
H        0.0601673230    0.0153256148    0.0980784414
H       -0.0754945901   -0.1674585074    2.5406505587
C        1.7842938436   -1.3319329438    4.2312348889
O        2.4463763271   -2.1623277464    4.7902588936
O        1.0071194014   -0.4880788124    4.9361972834
H        0.5258321485    0.1307977126    4.3713620098
H        3.6984682235   -2.2865866853    2.5789348214
H        3.8049745508   -2.0954895576    0.1129513844
