15   

H        1.8844838952   -1.1974102922   -1.1372589786
C        1.8989261556   -1.1491065647   -0.0516467454
C        2.9606304171   -1.7132779113    0.6606460458
C        2.9827076812   -1.6488132112    2.0589065974
C        1.9377004117   -1.0273806628    2.7676382448
C        0.8787646021   -0.4514116838    2.0340869148
C        0.8609361608   -0.5150082488    0.6358012515
H        0.0425691137   -0.0641613247    0.0808543974
H        0.0688492845    0.0724087625    2.5336912700
C        1.9680897212   -0.9741908872    4.2380961931
O        2.9986689886   -1.1458832446    4.8281131912
O        0.8177008376   -0.7689023661    4.9117254249
H        0.0392105000   -0.8750360873    4.3499263529
H        3.8160624205   -2.0885539423    2.6033529801
H        3.7727310616   -2.2015677952    0.1292293319
15   

H        1.8836727024   -1.2629936879   -1.1392470530
C        1.8975134986   -1.2018895303   -0.0542877989
C        2.9496618161   -1.7733244675    0.6666797166
C        2.9716346221   -1.6911751732    2.0642049618
C        1.9362443618   -1.0429513547    2.7629971667
C        0.8870042139   -0.4610338029    2.0206424937
C        0.8685945316   -0.5432165515    0.6235270844
H        0.0576320326   -0.0865530059    0.0625077931
H        0.0863576254    0.0823228918    2.5150187441
C        1.9669692172   -0.9570638609    4.2318026208
O        2.9798986341   -1.1865614993    4.8318058916
O        0.8201798788   -0.6788194542    4.8963881059
H        0.0378185925   -0.9607088413    4.4072844056
H        3.7987835528   -2.1346404057    2.6149661990
H        3.7551676483   -2.2796926815    0.1422468394
15   

H        1.8958485220   -1.3125025945   -1.1453680618
C        1.9057409860   -1.2419728447   -0.0609634429
C        2.9499792635   -1.8156560612    0.6699161183
C        2.9671782287   -1.7205192466    2.0668713306
C        1.9351410610   -1.0554374766    2.7547950811
C        0.8935605023   -0.4730656601    2.0023557561
C        0.8794338614   -0.5687160049    0.6062337295
H        0.0740224636   -0.1107247389    0.0383789596
H        0.0955361631    0.0802691167    2.4903537641
C        1.9609908645   -0.9456829309    4.2222495775
O        2.9519525252   -1.2278115673    4.8353835352
O        0.8187592339   -0.5923984266    4.8733959186
H        0.0425716754   -1.0278574338    4.5047499681
H        3.7891128442   -2.1644839469    2.6248645328
H        3.7535260815   -2.3330134541    0.1533407123
15   

H        1.9219885759   -1.3338927902   -1.1566121106
C        1.9244108550   -1.2605578441   -0.0723843547
C        2.9607659116   -1.8366175521    0.6679736763
C        2.9681721594   -1.7376253717    2.0649083299
C        1.9345641249   -1.0648736425    2.7430502959
C        0.9005105618   -0.4818391445    1.9810001750
C        0.8957478288   -0.5816963314    0.5852588469
H        0.0954043191   -0.1228481546    0.0110258016
H        0.0999458902    0.0732162880    2.4631311415
C        1.9493363838   -0.9460740059    4.2102333606
O        2.9157964688   -1.2750075839    4.8379326195
O        0.8161977537   -0.5119863117    4.8460295134
H        0.0570666120   -1.0666835643    4.6424416260
H        3.7844009989   -2.1830149173    2.6299474850
H        3.7659111421   -2.3585256829    0.1586058094
15   

H        1.9614691207   -1.3224197413   -1.1733850466
C        1.9526776808   -1.2536083755   -0.0889329272
C        2.9803857041   -1.8339554645    0.6601866219
C        2.9726524265   -1.7413315369    2.0576708886
C        1.9329522201   -1.0694521020    2.7274535491
C        0.9072937337   -0.4834440879    1.9565383728
C        0.9172764423   -0.5772368672    0.5605038460
H        0.1222492966   -0.1165602909   -0.0195395090
H        0.0997849186    0.0659395635    2.4336929384
C        1.9291472176   -0.9585095122    4.1957072780
O        2.8728462897   -1.3253088097    4.8365547622
O        0.8133990387   -0.4410092316    4.8144934309
H        0.0849154923   -1.0676539482    4.8165609711
H        3.7819526258   -2.1906239496    2.6293846056
H        3.7902730067   -2.3546073598    0.1571866246
15   

H        2.0124724381   -1.2864457491   -1.1912265024
C        1.9887907598   -1.2287687955   -0.1063863380
C        3.0061235334   -1.8165273346    0.6511116065
C        2.9781751726   -1.7393940665    2.0493692030
C        1.9290811320   -1.0744374833    2.7116033532
C        0.9137029075   -0.4818996705    1.9321022340
C        0.9434673120   -0.5606329700    0.5354835822
H        0.1549062533   -0.0960542800   -0.0501632542
H        0.0962706886    0.0569061157    2.4044497311
C        1.8997871848   -0.9847667810    4.1816034081
O        2.8238412094   -1.3846559978    4.8327016725
O        0.8135931305   -0.3839986397    4.7813436128
H        0.1343853978   -1.0226276622    5.0130069205
H        3.7788282120   -2.1957497241    2.6274535213
H        3.8231028104   -2.3317276182    0.1541004644
15   

H        2.0645252662   -1.2497715049   -1.2060676672
C        2.0244781295   -1.2045273352   -0.1211524329
C        3.0314006373   -1.7988649181    0.6450823618
C        2.9814373624   -1.7388815627    2.0436501307
C        1.9210739425   -1.0834243488    2.6976860950
C        0.9160227359   -0.4850705759    1.9090873134
C        0.9674263768   -0.5470916572    0.5123206125
H        0.1854528623   -0.0791589243   -0.0793891264
H        0.0874588621    0.0417566128    2.3755845447
C        1.8644636305   -1.0161122555    4.1688072952
O        2.7727895320   -1.4447172497    4.8270557774
O        0.8119089140   -0.3497498152    4.7476210989
H        0.2118246188   -0.9482730340    5.2015791505
H        3.7735174947   -2.2016786577    2.6282175754
H        3.8568909066   -2.3066886191    0.1546814634
15   

H        2.1054673516   -1.2293083507   -1.2160851719
C        2.0505519340   -1.1935961684   -0.1314905889
C        3.0484559118   -1.7918620091    0.6434523802
C        2.9786967230   -1.7449638967    2.0417458177
C        1.9079353409   -1.0974905358    2.6870041692
C        0.9117531411   -0.4960033200    1.8893574960
C        0.9825298528   -0.5455130630    0.4929997971
H        0.2063061273   -0.0760314407   -0.1049739729
H        0.0733181789    0.0209207595    2.3493627785
C        1.8283876185   -1.0446254665    4.1582480503
O        2.7179557128   -1.5064188120    4.8231435473
O        0.8069598146   -0.3320784798    4.7179659736
H        0.3143662119   -0.8554760994    5.3592634566
H        3.7635685309   -2.2116474390    2.6327671259
H        3.8820153503   -2.2930958083    0.1600466001
15   

H        2.1395127791   -1.2160462747   -1.2221903818
C        2.0722409186   -1.1858894682   -0.1381392310
C        3.0670579584   -1.7782255375    0.6453620698
C        2.9811105024   -1.7386641347    2.0430524908
C        1.8969748204   -1.1044920274    2.6790795368
C        0.9035620706   -0.5098770031    1.8727677887
C        0.9907023531   -0.5516362799    0.4771425063
H        0.2161020174   -0.0875715957   -0.1271112789
H        0.0537570859   -0.0056915036    2.3261862491
C        1.7990665535   -1.0595178949    4.1496603314
O        2.6824184080   -1.5241133775    4.8236025509
O        0.7732467616   -0.3583028982    4.6950932323
H        0.4261062690   -0.8001900064    5.4800685747
H        3.7633106477   -2.2012025449    2.6407307663
H        3.9105185212   -2.2695149503    0.1690296076
15   

H        2.1597720410   -1.2033941639   -1.2262336719
C        2.0832745094   -1.1788224437   -0.1426622600
C        3.0755161565   -1.7681111334    0.6464388572
C        2.9774440078   -1.7359823903    2.0435511852
C        1.8837201606   -1.1121787076    2.6732774671
C        0.8926076194   -0.5213388750    1.8614183926
C        0.9918919078   -0.5555233624    0.4664159118
H        0.2186569189   -0.0946636800   -0.1420083113
H        0.0346221929   -0.0271814139    2.3105995016
C        1.7732893668   -1.0739759448    4.1431246634
O        2.6438080444   -1.5545251973    4.8245058725
O        0.7399032048   -0.3917489861    4.6808940055
H        0.5371981302   -0.7272174910    5.5654997440
H        3.7573439444   -2.1965550734    2.6456725410
H        3.9261463686   -2.2515665115    0.1748891480
15   

H        2.1789672277   -1.1891776900   -1.2286798351
C        2.0952163466   -1.1693731947   -0.1455524226
C        3.0879685411   -1.7519973550    0.6479201176
C        2.9803167108   -1.7262603532    2.0444847432
C        1.8762595346   -1.1158452995    2.6690379342
C        0.8843837025   -0.5322787114    1.8529577468
C        0.9934518897   -0.5596202623    0.4585602751
H        0.2193257481   -0.1046437622   -0.1531445362
H        0.0177770719   -0.0501298262    2.2987463778
C        1.7556163487   -1.0842057432    4.1380139996
O        2.6168335977   -1.5726145196    4.8267461092
O        0.6983563091   -0.4452919620    4.6712270085
H        0.6316778721   -0.6531536498    5.6154453424
H        3.7600927629   -2.1822250491    2.6502287442
H        3.9461104083   -2.2257385334    0.1801524066
15   

H        2.1947376578   -1.1718993867   -1.2287321739
C        2.1059675443   -1.1574190708   -0.1459220145
C        3.1015894406   -1.7322259368    0.6496947077
C        2.9872789512   -1.7136386513    2.0458615651
C        1.8733664508   -1.1187168711    2.6677320630
C        0.8783521382   -0.5435259289    1.8495566734
C        0.9943767473   -0.5631389315    0.4556082299
H        0.2175956045   -0.1149159042   -0.1577181202
H        0.0034217666   -0.0748250487    2.2934683453
C        1.7453979085   -1.0948666235    4.1361303246
O        2.6008502046   -1.5892391563    4.8282333557
O        0.6573499088   -0.5109972470    4.6661220628
H        0.6999389110   -0.5653211222    5.6333332705
H        3.7687699015   -2.1642752288    2.6533679727
H        3.9668080556   -2.1948619487    0.1838600086
15   

H        2.2009818983   -1.1492795629   -1.2274091743
C        2.1103880323   -1.1418757372   -0.1446768172
C        3.1112074964   -1.7098797333    0.6492616694
C        2.9944052340   -1.7007249480    2.0452980018
C        1.8725223345   -1.1226140914    2.6688219847
C        0.8719829082   -0.5547482817    1.8522413761
C        0.9908370625   -0.5643560073    0.4584088331
H        0.2096729714   -0.1221342241   -0.1537024593
H       -0.0099698967   -0.1004099972    2.2971437205
C        1.7418525834   -1.1091454935    4.1372193448
O        2.5956212908   -1.6110535645    4.8255198551
O        0.6233568342   -0.5811941972    4.6668987331
H        0.7380839982   -0.4603478616    5.6215896631
H        3.7795790045   -2.1469075500    2.6513537145
H        3.9821291463   -2.1604610572    0.1822319546
15   

H        2.2026967261   -1.1256037501   -1.2237547088
C        2.1119323005   -1.1268867546   -0.1410068970
C        3.1182421543   -1.6906793013    0.6489067948
C        3.0011352642   -1.6930456983    2.0449202765
C        1.8732980332   -1.1310644420    2.6726768809
C        0.8668922861   -0.5679407612    1.8599344874
C        0.9863261642   -0.5656097764    0.4660951769
H        0.2005676472   -0.1274467290   -0.1430523671
H       -0.0207109353   -0.1274585223    2.3074053740
C        1.7425057022   -1.1297618481    4.1413487381
O        2.5948292523   -1.6432847721    4.8216789977
O        0.5999696414   -0.6453359559    4.6728183693
H        0.7515957899   -0.3386902404    5.5778783972
H        3.7903767115   -2.1366885001    2.6475812347
H        3.9934766925   -2.1295451323    0.1787777900
15   

H        2.2024806616   -1.1019479819   -1.2185555581
C        2.1119007327   -1.1140269955   -0.1358500538
C        3.1223007752   -1.6781197359    0.6485531865
C        3.0053592089   -1.6947218587    2.0444542088
C        1.8737097629   -1.1466538277    2.6777358398
C        0.8627470275   -0.5838467505    1.8704086354
C        0.9821258220   -0.5671875504    0.4766445576
H        0.1928251191   -0.1297659099   -0.1284596275
H       -0.0290780823   -0.1558100915    2.3213992381
C        1.7438508674   -1.1595768666    4.1464720475
O        2.5897002815   -1.6921276373    4.8182492012
O        0.5891191364   -0.6919566598    4.6844649821
H        0.7563617458   -0.2017551547    5.4991357891
H        3.7976007398   -2.1390601772    2.6427141584
H        4.0004567339   -2.1065342811    0.1742255445
15   

H        2.1953578824   -1.0664048720   -1.2108958914
C        2.1066623233   -1.0919097474   -0.1282514116
C        3.1239616064   -1.6550246277    0.6478122368
C        3.0094425032   -1.6892413798    2.0435217009
C        1.8734297973   -1.1600201459    2.6850121713
C        0.8549374948   -0.5989662783    1.8860765676
C        0.9721543137   -0.5643163338    0.4923997832
H        0.1772325555   -0.1287217398   -0.1066541788
H       -0.0417714874   -0.1876498843    2.3427169632
C        1.7466811696   -1.1926938506    4.1535312613
O        2.5937540428   -1.7314971790    4.8159724646
O        0.5843044840   -0.7355723178    4.7051138892
H        0.7466948565   -0.0720224771    5.3842213722
H        3.8067999634   -2.1332963806    2.6352646359
H        4.0054360404   -2.0694240536    0.1671733349
15   

H        2.1905430449   -1.0213975510   -1.1987910909
C        2.1017169006   -1.0645546150   -0.1166916189
C        3.1207522839   -1.6369389217    0.6502431648
C        3.0057306182   -1.6948596191    2.0450554851
C        1.8682729327   -1.1791201696    2.6946404287
C        0.8474429882   -0.6093634194    1.9051300031
C        0.9649074411   -0.5516637030    0.5121766615
H        0.1680509339   -0.1107042965   -0.0803927872
H       -0.0525507903   -0.2119885346    2.3675032535
C        1.7415560525   -1.2388603941    4.1617148102
O        2.5707986420   -1.8107868799    4.8154003260
O        0.6010662935   -0.7318610651    4.7354519092
H        0.7746081666    0.0716806668    5.2340629708
H        3.8038308188   -2.1467456894    2.6299710571
H        4.0036854455   -2.0406589968    0.1631587050
15   

H        2.1933709010   -0.9585993428   -1.1807862054
C        2.1027674599   -1.0222039790   -0.0998092889
C        3.1220247125   -1.6064749543    0.6577996510
C        3.0042578395   -1.6921187707    2.0508721497
C        1.8645667643   -1.1913500038    2.7078763596
C        0.8429050356   -0.6101995373    1.9280127580
C        0.9629488806   -0.5253204896    0.5366057198
H        0.1652542126   -0.0772944823   -0.0495683271
H       -0.0614293602   -0.2288857882    2.3953439723
C        1.7335516212   -1.2860274488    4.1720040923
O        2.5470794022   -1.8862187993    4.8167186007
O        0.6300193536   -0.7166803774    4.7707449260
H        0.8012632659    0.1859191574    5.0515072455
H        3.8016562341   -2.1543727967    2.6287685721
H        4.0068271239   -1.9987602062    0.1647037959
15   

H        2.1960919367   -0.8972201922   -1.1598429005
C        2.1040332462   -0.9793138247   -0.0801973479
C        3.1227932795   -1.5758767361    0.6684062145
C        3.0027411495   -1.6868079917    2.0594069429
C        1.8620023741   -1.1980410536    2.7233567046
C        0.8401373112   -0.6051588741    1.9526598495
C        0.9623389430   -0.4955775784    0.5631031654
H        0.1643371346   -0.0402924832   -0.0171122807
H       -0.0679771600   -0.2381029292    2.4240061752
C        1.7266546409   -1.3254933139    4.1840171593
O        2.5229916889   -1.9593575847    4.8163591587
O        0.6772039887   -0.6878346228    4.8066287560
H        0.8181736138    0.2612559474    4.8588873728
H        3.7989593762   -2.1598085689    2.6303658308
H        4.0085844310   -1.9589679060    0.1697881079
15   

H        2.1842786271   -0.8585777865   -1.1414706765
C        2.0943867334   -0.9525419927   -0.0625712834
C        3.1143808065   -1.5582491668    0.6768456240
C        2.9970407200   -1.6853321288    2.0665801752
C        1.8585830682   -1.2026003219    2.7386674549
C        0.8345042868   -0.6014922636    1.9771891391
C        0.9539552622   -0.4762395931    0.5886175259
H        0.1544999183   -0.0157848072    0.0144333049
H       -0.0748388937   -0.2435760172    2.4530370089
C        1.7265393064   -1.3498761132    4.1973771368
O        2.5034087052   -2.0224237029    4.8141474954
O        0.7378277358   -0.6540267079    4.8415011394
H        0.8070926336    0.2927333846    4.6857291610
H        3.7938438817   -2.1659249145    2.6305002841
H        3.9988802536   -1.9363432924    0.1720604088
15   

H        2.1519416180   -0.8483913884   -1.1305829019
C        2.0683989463   -0.9471925924   -0.0515719515
C        3.0908339300   -1.5603887639    0.6780499368
C        2.9819724672   -1.6937092141    2.0677281582
C        1.8505810840   -1.2086861614    2.7499156304
C        0.8227998923   -0.6013069552    1.9982718927
C        0.9337123505   -0.4703509807    0.6093679272
H        0.1321138743   -0.0054504615    0.0417325208
H       -0.0838852926   -0.2448974748    2.4799964020
C        1.7320799397   -1.3605367496    4.2090372779
O        2.4827995999   -2.0780554326    4.8083043997
O        0.8064534336   -0.6146942322    4.8726871738
H        0.7703461006    0.2910990003    4.5467632775
H        3.7807954340   -2.1795583197    2.6243879187
H        3.9708221110   -1.9392121786    0.1658879194
15   

H        2.1034261244   -0.8647340752   -1.1265613380
C        2.0299430115   -0.9618861393   -0.0466430193
C        3.0549642905   -1.5824828599    0.6727589473
C        2.9596134649   -1.7129580296    2.0635114512
C        1.8403916706   -1.2166615137    2.7574639252
C        0.8086366178   -0.6030562767    2.0161182149
C        0.9059058028   -0.4755953673    0.6256805732
H        0.1022841621   -0.0056284140    0.0650847027
H       -0.0911840669   -0.2394324119    2.5047691652
C        1.7446312744   -1.3600023303    4.2189677666
O        2.4629322401   -2.1234549509    4.8019628397
O        0.8796504269   -0.5710367319    4.8998210819
H        0.7136785513    0.2641547569    4.4462994831
H        3.7609906691   -2.2031289818    2.6127852684
H        3.9269192992   -1.9684256991    0.1521623158
15   

H        2.0483708608   -0.9004112555   -1.1277968602
C        1.9860108227   -0.9912930513   -0.0466181128
C        3.0102233949   -1.6234084056    0.6635122253
C        2.9298566754   -1.7445986321    2.0558591178
C        1.8278831078   -1.2264039112    2.7613004963
C        0.7957472143   -0.6018677002    2.0292944502
C        0.8776476928   -0.4847298222    0.6367657451
H        0.0748293996   -0.0057055685    0.0827150769
H       -0.0926452667   -0.2202698265    2.5243672148
C        1.7595380070   -1.3521456080    4.2260588572
O        2.4386596347   -2.1607815522    4.7957903969
O        0.9540626887   -0.5217672158    4.9195987469
H        0.6435407285    0.2201966115    4.3848134531
H        3.7315659648   -2.2416886410    2.5984801918
H        3.8706032729   -2.0242034434    0.1348838209
15   

H        1.9917915379   -0.9392913161   -1.1330658299
C        1.9428056364   -1.0198659772   -0.0503771779
C        2.9616870693   -1.6703963320    0.6501049248
C        2.8991581401   -1.7770339856    2.0443351636
C        1.8214339255   -1.2257537980    2.7626950608
C        0.7944338793   -0.5812688390    2.0399399649
C        0.8580569041   -0.4798259037    0.6450023877
H        0.0601674560    0.0153256948    0.0980784228
H       -0.0754945930   -0.1674585788    2.5406505240
C        1.7842938436   -1.3319329438    4.2312348889
O        2.4463763271   -2.1623277464    4.7902588936
O        1.0071194014   -0.4880788124    4.9361972834
H        0.5258321485    0.1307977126    4.3713620098
H        3.6984683849   -2.2865864650    2.5789348936
H        3.8049748738   -2.0954891426    0.1129514874
