15   

H        2.1271734403   -1.0610764191   -1.2209000664
C        1.9701879788   -1.0475308639   -0.1458256067
C        3.0517399976   -1.2090820870    0.7250415184
C        2.8496035073   -1.1921327329    2.1114852719
C        1.5750217493   -1.0076583079    2.6408529889
C        0.4892273721   -0.8565669092    1.7591057569
C        0.6850900161   -0.8725850470    0.3736021935
H       -0.1620525838   -0.7512163704   -0.2955417550
H       -0.5139387268   -0.7261741671    2.1592543643
C        1.3363139185   -1.0078945632    4.1002347776
O        0.2532049108   -1.1124393342    4.6203504509
O        2.4619676879   -0.8943820791    4.8444944947
H        2.1477969058   -0.9106862826    5.7603534947
H        3.7100954699   -1.3264420485    2.7621010113
H        4.0522035477   -1.3500579684    0.3259820615
15   

H        2.1246472991   -1.0335677925   -1.2187905072
C        1.9683865471   -1.0309926991   -0.1435297996
C        3.0460703815   -1.2339597185    0.7240858430
C        2.8439185366   -1.2315988433    2.1105081007
C        1.5758451323   -1.0141948099    2.6412102956
C        0.4920431697   -0.8312814641    1.7648196904
C        0.6874089222   -0.8324313263    0.3789791948
H       -0.1568539555   -0.6835924939   -0.2882414898
H       -0.5072725727   -0.6894837017    2.1703958300
C        1.3412519635   -1.0533571554    4.1018528964
O        0.3073808204   -1.3862309155    4.6242305881
O        2.4261711344   -0.7149005262    4.8376100807
H        2.1290452474   -0.7916129833    5.7560133888
H        3.6941522569   -1.4007106160    2.7666543683
H        4.0421658923   -1.3970849978    0.3225687411
15   

H        2.1177430451   -1.0081098897   -1.2164901203
C        1.9639218295   -1.0165902471   -0.1409080572
C        3.0381700240   -1.2616045273    0.7207711789
C        2.8382667866   -1.2736982318    2.1073376471
C        1.5785392440   -1.0245961847    2.6418248852
C        0.4961126105   -0.8062937421    1.7737735846
C        0.6889138381   -0.7926179453    0.3874299144
H       -0.1526155229   -0.6144557754   -0.2760297200
H       -0.4981077424   -0.6504706667    2.1861041437
C        1.3535862452   -1.0994281784    4.1052591957
O        0.4186322885   -1.6454844608    4.6319319426
O        2.3541332243   -0.5472845448    4.8298364265
H        2.0881512832   -0.6791125102    5.7514194362
H        3.6787827108   -1.4750821855    2.7669420417
H        4.0284889129   -1.4467075570    0.3145410582
15   

H        2.1067586712   -0.9837345583   -1.2155328176
C        1.9581488674   -1.0062316024   -0.1394204152
C        3.0296469206   -1.2973336877    0.7117965584
C        2.8360211088   -1.3272371152    2.0988945858
C        1.5870224546   -1.0499659896    2.6422061447
C        0.5058384151   -0.7862552825    1.7866920514
C        0.6923813507   -0.7543645488    0.3996199329
H       -0.1466354183   -0.5407649316   -0.2565032036
H       -0.4808956900   -0.6098538783    2.2079200086
C        1.3771912808   -1.1498826846    4.1105338262
O        0.5893811345   -1.8830960933    4.6473983084
O        2.2370565930   -0.3838099229    4.8190275566
H        2.0116236143   -0.5557803951    5.7446684575
H        3.6699107218   -1.5622608726    2.7556354980
H        4.0120815160   -1.5040916425    0.2969651396
15   

H        2.0896327604   -0.9507971331   -1.2157594637
C        1.9514566426   -0.9933202201   -0.1388611330
C        3.0217368161   -1.3390517446    0.6934669577
C        2.8415329041   -1.3943200049    2.0815640886
C        1.6068408550   -1.0943136274    2.6431597313
C        0.5275817739   -0.7671175879    1.8080125594
C        0.7008671461   -0.7096804089    0.4199555148
H       -0.1361631290   -0.4497552938   -0.2218172675
H       -0.4463828767   -0.5603790354    2.2442918294
C        1.4183718898   -1.2028539988    4.1181781231
O        0.8236936331   -2.0837055336    4.6786978889
O        2.0538754805   -0.2230826834    4.7977098489
H        1.8716570076   -0.4128177022    5.7292542401
H        3.6732220064   -1.6688499765    2.7254210303
H        3.9926307191   -1.5674592516    0.2631027443
15   

H        2.0780867562   -0.9098251481   -1.2148586415
C        1.9525834504   -0.9734708976   -0.1374505297
C        3.0178275382   -1.3854873123    0.6707002720
C        2.8537545594   -1.4680159714    2.0594546257
C        1.6377601395   -1.1415041076    2.6452017903
C        0.5679591256   -0.7298469732    1.8353317972
C        0.7247766348   -0.6452634492    0.4467129053
H       -0.1065119469   -0.3263712693   -0.1756232740
H       -0.3858865546   -0.4777537654    2.2914383408
C        1.4730089987   -1.2405544486    4.1258747246
O        1.1012532053   -2.2147593928    4.7218263265
O        1.7928661020   -0.0917309777    4.7602209338
H        1.6470277810   -0.2803551300    5.6983165609
H        3.6824125569   -1.7907053990    2.6845548274
H        3.9726393697   -1.6427918828    0.2210765652
15   

H        2.0619299822   -0.8790496056   -1.2142884341
C        1.9514688636   -0.9557138975   -0.1360819092
C        3.0114372324   -1.4250710187    0.6471003778
C        2.8664447572   -1.5247666222    2.0368281587
C        1.6710777304   -1.1693990617    2.6487218174
C        0.6126023788   -0.6836220324    1.8642054504
C        0.7500734011   -0.5820559476    0.4747114051
H       -0.0749029834   -0.2118189281   -0.1272487198
H       -0.3175967751   -0.3865710323    2.3416220995
C        1.5383119488   -1.2544280516    4.1318157707
O        1.4097146879   -2.2666544531    4.7662480239
O        1.5123008440   -0.0369476049    4.7172106831
H        1.4075078007   -0.2213765793    5.6616545348
H        3.6920747562   -1.8895828537    2.6426977173
H        3.9478265376   -1.7126185583    0.1774794358
15   

H        2.0487281702   -0.8846211750   -1.2172488998
C        1.9501732343   -0.9588596487   -0.1377204831
C        3.0022849671   -1.4686812227    0.6303329446
C        2.8726607065   -1.5653425127    2.0217252364
C        1.6979208442   -1.1710126480    2.6518016138
C        0.6503152133   -0.6382454262    1.8810806604
C        0.7728985002   -0.5398083253    0.4900044896
H       -0.0447276127   -0.1354385880   -0.0998981744
H       -0.2602933436   -0.3018335301    2.3702924180
C        1.5964290045   -1.2427548451    4.1339544843
O        1.7085418184   -2.2410864406    4.7950790157
O        1.2701426159   -0.0543671944    4.6902017701
H        1.2142093663   -0.2364195326    5.6393667006
H        3.6927049599   -1.9612305324    2.6159929616
H        3.9210358019   -1.7898442562    0.1478198038
15   

H        2.0333480676   -0.9131401282   -1.2227800227
C        1.9445722251   -0.9746812768   -0.1416053971
C        2.9880040727   -1.5117233550    0.6193108827
C        2.8713850995   -1.5919213787    2.0127836059
C        1.7174240984   -1.1528007744    2.6543384806
C        0.6776824967   -0.5944718417    1.8881686903
C        0.7885129674   -0.5127328147    0.4950170246
H       -0.0224196289   -0.0880494345   -0.0898372160
H       -0.2191297558   -0.2253042428    2.3794632789
C        1.6441545613   -1.2154775829    4.1344176728
O        1.9849076384   -2.1537229375    4.8074671940
O        1.0718748556   -0.1194488603    4.6837195236
H        1.0708131632   -0.2971124660    5.6354746368
H        3.6854929666   -2.0098006633    2.6006347344
H        3.8902878570   -1.8671374844    0.1297716319
15   

H        2.0177215417   -0.9530386083   -1.2296520991
C        1.9381291718   -0.9963333150   -0.1468787832
C        2.9725888742   -1.5530640835    0.6115626697
C        2.8683765349   -1.6096800419    2.0070876944
C        1.7361895746   -1.1234446828    2.6558132027
C        0.7023971172   -0.5507017779    1.8890972550
C        0.8022461297   -0.4928421749    0.4939286859
H       -0.0027079701   -0.0551391182   -0.0896011449
H       -0.1835729046   -0.1515383584    2.3766152296
C        1.6838699788   -1.1792633719    4.1339537702
O        2.2303402313   -2.0124054923    4.8120087637
O        0.9059726111   -0.2185083501    4.6851733914
H        0.9568718512   -0.3830067942    5.6380261409
H        3.6777040685   -2.0441232141    2.5899185160
H        3.8587785432   -1.9425879699    0.1185777795
15   

H        1.9967623746   -0.9985488902   -1.2355066718
C        1.9271955654   -1.0218994806   -0.1514282896
C        2.9532646132   -1.5945606951    0.6058808644
C        2.8626774277   -1.6251127168    2.0031200482
C        1.7537231703   -1.0925346466    2.6572694761
C        0.7245635692   -0.5100195979    1.8889142569
C        0.8119452714   -0.4783032874    0.4920856437
H        0.0122840682   -0.0302803384   -0.0909041306
H       -0.1498626562   -0.0810754028    2.3718313622
C        1.7167859944   -1.1395533839    4.1348693982
O        2.4373567390   -1.8226228019    4.8195694351
O        0.7649311640   -0.3497072464    4.6851518989
H        0.8588008542   -0.4876083715    5.6390228318
H        3.6683853260   -2.0734523918    2.5805920342
H        3.8229864741   -2.0170559062    0.1107123105
15   

H        1.9716837971   -1.0475018539   -1.2388639881
C        1.9132133528   -1.0499014858   -0.1538816124
C        2.9316319695   -1.6363231691    0.6029275443
C        2.8559176633   -1.6392787990    2.0013721641
C        1.7711758701   -1.0614683951    2.6583320889
C        0.7462428310   -0.4710201712    1.8892632729
C        0.8193502518   -0.4666599107    0.4912754834
H        0.0247347005   -0.0093774513   -0.0914311505
H       -0.1134980028   -0.0118416481    2.3706635509
C        1.7452535820   -1.0947464362    4.1362315885
O        2.6010901807   -1.5895811598    4.8276185173
O        0.6531705478   -0.5093032300    4.6816360793
H        0.7779856400   -0.6089904040    5.6367401862
H        3.6566943184   -2.0997823926    2.5761517951
H        3.7841533700   -2.0910886495    0.1064277906
15   

H        1.9428082903   -1.0963257444   -1.2386207500
C        1.8962408557   -1.0779957947   -0.1532147323
C        2.9074102587   -1.6776606639    0.6032335730
C        2.8472829559   -1.6530115717    2.0022310415
C        1.7877701653   -1.0308317694    2.6592356365
C        0.7669194190   -0.4332575710    1.8913605416
C        0.8243409242   -0.4558363270    0.4928024707
H        0.0346411532    0.0102407147   -0.0896115971
H       -0.0752432589    0.0541578185    2.3761404216
C        1.7680236527   -1.0466950957    4.1378279895
O        2.7114770644   -1.3258307833    4.8353945750
O        0.5776514847   -0.6891162697    4.6743416172
H        0.7186256207   -0.7416487295    5.6309317247
H        3.6406252574   -2.1237622504    2.5789886690
H        3.7419411689   -2.1639322268    0.1060330647
15   

H        1.9153641054   -1.1385418368   -1.2355605064
C        1.8803414435   -1.1010625908   -0.1502144087
C        2.8824905394   -1.7163503765    0.6063618047
C        2.8371716160   -1.6662333475    2.0052864486
C        1.8045831785   -0.9994947031    2.6597614547
C        0.7894773193   -0.3928857558    1.8941242542
C        0.8314071757   -0.4399933470    0.4956123105
H        0.0476218336    0.0360742465   -0.0866954387
H       -0.0337941252    0.1199069442    2.3852615799
C        1.7840533419   -0.9976994261    4.1397371598
O        2.7616547916   -1.0494982360    4.8426783265
O        0.5419984238   -0.8781428398    4.6641638950
H        0.6825569594   -0.8801512237    5.6221921286
H        3.6205535784   -2.1476981097    2.5866194621
H        3.6978778078   -2.2341902059    0.1092897716
15   

H        1.8897886464   -1.1733114550   -1.2310667802
C        1.8653335844   -1.1182842219   -0.1461792332
C        2.8555596228   -1.7517522886    0.6116652801
C        2.8236111673   -1.6785019759    2.0100256110
C        1.8194261163   -0.9679417384    2.6602269800
C        0.8133160127   -0.3486615468    1.8959988942
C        0.8408645018   -0.4178540700    0.4980397675
H        0.0649309252    0.0702589570   -0.0847937367
H        0.0095145372    0.1890701879    2.3926628386
C        1.7934632355   -0.9448832003    4.1430370010
O        2.7502839752   -0.7666230362    4.8516483970
O        0.5468180392   -1.0710145762    4.6534115591
H        0.6708105934   -1.0220414006    5.6123853620
H        3.5954064886   -2.1730652546    2.5954338475
H        3.6506069491   -2.3015118935    0.1159354767
15   

H        1.8737395574   -1.2017559152   -1.2273502594
C        1.8548441906   -1.1316263623   -0.1432234950
C        2.8264987149   -1.7872613331    0.6201856126
C        2.8015836751   -1.6941567534    2.0176222523
C        1.8244835839   -0.9416422295    2.6591073548
C        0.8359084667   -0.3018934200    1.8917938433
C        0.8555570261   -0.3900061484    0.4947757621
H        0.0933599845    0.1148182833   -0.0919272879
H        0.0524912147    0.2650287713    2.3883476615
C        1.7910699962   -0.8900048866    4.1451899715
O        2.6770102737   -0.4859195492    4.8509845332
O        0.5974157105   -1.2735575189    4.6513677047
H        0.6959097573   -1.1757386647    5.6094470567
H        3.5577835204   -2.2057506648    2.6082045872
H        3.6011896192   -2.3695058455    0.1293566619
15   

H        1.8759942894   -1.2160236615   -1.2250216009
C        1.8528325126   -1.1344743906   -0.1417757228
C        2.7940656131   -1.8190166614    0.6345525956
C        2.7635605273   -1.7112254378    2.0308891714
C        1.8088804705   -0.9196584023    2.6566764989
C        0.8545996304   -0.2450485810    1.8781747093
C        0.8795040353   -0.3474881948    0.4821827504
H        0.1425633968    0.1822969667   -0.1146955090
H        0.0943203098    0.3599500340    2.3653999683
C        1.7699864762   -0.8345619914    4.1451889787
O        2.5399579867   -0.2183024690    4.8314923067
O        0.7111689675   -1.4888467366    4.6709640060
H        0.7857294101   -1.3482307235    5.6257612079
H        3.4961621521   -2.2446379463    2.6313886752
H        3.5494041558   -2.4346844580    0.1544805190
15   

H        1.9106464311   -1.2132797194   -1.2245240898
C        1.8684753868   -1.1259017832   -0.1423056283
C        2.7633788892   -1.8466282175    0.6560121867
C        2.7082077333   -1.7317931572    2.0510529156
C        1.7676188039   -0.9061614372    2.6526979286
C        0.8706339122   -0.1813078058    1.8528038386
C        0.9201930583   -0.2911094393    0.4579934521
H        0.2238367208    0.2723219520   -0.1565536730
H        0.1363159984    0.4686378115    2.3215827221
C        1.7235761227   -0.7864501195    4.1403386036
O        2.3327034541    0.0170083868    4.7929140153
O        0.9060190262   -1.6989713183    4.7090252610
H        0.9623962601   -1.5211177052    5.6587941781
H        3.4062956976   -2.2911159238    2.6686159044
H        3.5024428162   -2.4949347509    0.1939343752
15   

H        1.9514646386   -1.2011996246   -1.2237351969
C        1.8846900320   -1.1143215671   -0.1427152040
C        2.7255967344   -1.8757491589    0.6763720511
C        2.6387926198   -1.7617487095    2.0698606993
C        1.7112838138   -0.9050314319    2.6491887415
C        0.8813308838   -0.1260151392    1.8284330257
C        0.9626090081   -0.2353229967    0.4350648479
H        0.3135594128    0.3652815591   -0.1958565743
H        0.1751522941    0.5660344753    2.2801704515
C        1.6627618949   -0.7599451383    4.1322855712
O        2.0749866191    0.1840223909    4.7509295601
O        1.1553107447   -1.8515608677    4.7458395187
H        1.1933934112   -1.6420423854    5.6901009319
H        3.2972821362   -2.3501701623    2.7037195014
H        3.4482950244   -2.5539636959    0.2316805398
15   

H        1.9884390072   -1.1981663033   -1.2223627745
C        1.8991899126   -1.1130834855   -0.1428237956
C        2.6940578056   -1.9055251447    0.6924247520
C        2.5786775198   -1.7936236373    2.0840394834
C        1.6632464380   -0.9118247996    2.6466060274
C        0.8864810237   -0.0964131832    1.8086645359
C        0.9964015489   -0.2033858830    0.4171694199
H        0.3858388925    0.4242433532   -0.2257662637
H        0.1995394629    0.6233050525    2.2471979943
C        1.5962172013   -0.7529411735    4.1231769655
O        1.7812278409    0.2768966197    4.7161987547
O        1.3883432841   -1.9219420960    4.7700343599
H        1.3885105539   -1.6850559963    5.7086982467
H        3.2045983660   -2.4055511865    2.7287754375
H        3.4041944286   -2.6057712202    0.2618749798
15   

H        2.0149313920   -1.1944361040   -1.2224247793
C        1.9110672955   -1.1123790080   -0.1439589503
C        2.6681612005   -1.9321751253    0.6994125353
C        2.5343907127   -1.8244161650    2.0897965145
C        1.6372851376   -0.9181310888    2.6452160037
C        0.8985795832   -0.0768995901    1.7970061073
C        1.0272173046   -0.1795076085    0.4069586077
H        0.4454680810    0.4694566452   -0.2415052314
H        0.2252788282    0.6605289769    2.2278618033
C        1.5411137294   -0.7595713251    4.1160844188
O        1.4896788121    0.2955801061    4.6937603843
O        1.5887097195   -1.9344690542    4.7856506807
H        1.5334169565   -1.6844642002    5.7193961108
H        3.1353330225   -2.4599816767    2.7355714704
H        3.3639672026   -2.6510264036    0.2761816391
15   

H        2.0401966777   -1.1866166287   -1.2236655067
C        1.9256941050   -1.1083636833   -0.1459942770
C        2.6489176309   -1.9537232334    0.7011597317
C        2.5017324774   -1.8517468180    2.0907549812
C        1.6270710150   -0.9213588956    2.6441673895
C        0.9177714098   -0.0597306500    1.7893952806
C        1.0602964121   -0.1566432248    0.4005045175
H        0.5019777553    0.5104156164   -0.2502097238
H        0.2537897995    0.6897961528    2.2143288748
C        1.4956788248   -0.7734899047    4.1107672385
O        1.2113706235    0.2520767369    4.6764130352
O        1.7686294920   -1.9065717096    4.7996537886
H        1.6502144776   -1.6594047835    5.7283731345
H        3.0806724392   -2.5125273100    2.7312405456
H        3.3291005535   -2.6893795927    0.2814062149
15   

H        2.0648549029   -1.1740150356   -1.2244974831
C        1.9406968990   -1.1009766217   -0.1475280340
C        2.6308867727   -1.9717979539    0.7007474190
C        2.4713770199   -1.8775965807    2.0896518253
C        1.6211151905   -0.9241232014    2.6435138155
C        0.9377967652   -0.0436200634    1.7849997323
C        1.0931465345   -0.1330592303    0.3971575286
H        0.5565645016    0.5511419270   -0.2540590749
H        0.2815478109    0.7154939108    2.2051743174
C        1.4546560578   -0.7934231178    4.1070663019
O        0.9511230189    0.1524037904    4.6606374231
O        1.9392652336   -1.8416822933    4.8143220321
H        1.7607591424   -1.6121200654    5.7380122297
H        3.0265197090   -2.5652937254    2.7226411487
H        3.2946106886   -2.7230502169    0.2822494259
15   

H        2.1248479423   -1.0886096963   -1.2217068603
C        1.9689205345   -1.0630879152   -0.1466950770
C        3.0551203891   -1.1833803577    0.7247592602
C        2.8547364967   -1.1505359610    2.1112145931
C        1.5758198306   -0.9981885517    2.6410089043
C        0.4868535506   -0.8776673334    1.7576335716
C        0.6811191656   -0.9097913341    0.3722463081
H       -0.1692853258   -0.8155215008   -0.2971323612
H       -0.5184873171   -0.7580303656    2.1557491088
C        1.3386134267   -0.9604966406    4.0999134626
O        0.2563915372   -0.8311031359    4.6169866066
O        2.4596394798   -1.0856136483    4.8494203470
H        2.1436198281   -1.0425286328    5.7637993715
H        3.7224386992   -1.2469562423    2.7588657587
H        4.0585607805   -1.3027877524    0.3261256826
