15   

H        1.8842791745   -1.1992263215   -1.1371827106
C        1.8987227428   -1.1506600639   -0.0515822188
C        2.9604289554   -1.7146521909    0.6608529850
C        2.9825320363   -1.6498045663    2.0590983347
C        1.9375471811   -1.0281542890    2.7676695091
C        0.8785962328   -0.4523971099    2.0339694535
C        0.8607413487   -0.5163780737    0.6357048563
H        0.0423814967   -0.0656512066    0.0806489018
H        0.0687211208    0.0716234822    2.5334298669
C        1.9680883683   -0.9741836753    4.2380957310
O        2.9986688411   -1.1458666493    4.8281181973
O        0.8176975165   -0.7689074310    4.9117198680
H        0.0392111191   -0.8750488027    4.3499162352
H        3.8159229156   -2.0893430448    2.6036516651
H        3.7725320590   -2.2030635576    0.1295526223
15   

H        1.8831667626   -1.2658772121   -1.1390726581
C        1.8970394028   -1.2043576980   -0.0541372809
C        2.9492027500   -1.7755199461    0.6670290480
C        2.9712576847   -1.6927633935    2.0645212435
C        1.9359337050   -1.0441827448    2.7630772439
C        0.8866561270   -0.4625888815    2.0205150709
C        0.8681631361   -0.5453818590    0.6234414277
H        0.0572051232   -0.0888979693    0.0622679723
H        0.0861009248    0.0811004124    2.5146752505
C        1.9669687079   -0.9570535557    4.2318023284
O        2.9799005709   -1.1865343014    4.8318113293
O        0.8201727735   -0.6788308861    4.8963827097
H        0.0378198781   -0.9607343381    4.4072733019
H        3.7984770492   -2.1359153204    2.6154275071
H        3.7546919834   -2.2820886896    0.1427656859
15   

H        1.8952338718   -1.3150496433   -1.1451819105
C        1.9051820566   -1.2441546283   -0.0608016048
C        2.9494510907   -1.8175975697    0.6702260058
C        2.9667604424   -1.7219246918    2.0671462874
C        1.9348036397   -1.0565277268    2.7548835427
C        0.8931707040   -0.4744417985    2.0022899931
C        0.8789327074   -0.5706307984    0.6062097291
H        0.0735133236   -0.1127962868    0.0382386884
H        0.0952457932    0.0791905750    2.4901146390
C        1.9609905227   -0.9456727612    4.2222483695
O        2.9519553600   -1.2277853219    4.8353878664
O        0.8187513595   -0.5924102168    4.8733903761
H        0.0425735843   -1.0278828458    4.5047395272
H        3.7887738194   -2.1656111625    2.6252438585
H        3.7529691067   -2.3351309193    0.1537830494
15   

H        1.9217783640   -1.3345177642   -1.1565640779
C        1.9242240281   -1.2610918226   -0.0723425229
C        2.9605973904   -1.8370846272    0.6680425673
C        2.9680440559   -1.7379582054    2.0649680276
C        1.9344585091   -1.0651350473    2.7430730527
C        0.9003805379   -0.4821792571    1.9809949018
C        0.8955775096   -0.5821706853    0.5852640003
H        0.0952242009   -0.1233664937    0.0110092224
H        0.0998427875    0.0729454844    2.4630912159
C        1.9493342915   -0.9460609383    4.2102323805
O        2.9158055587   -1.2749738308    4.8379288803
O        0.8161862423   -0.5120029357    4.8460307092
H        0.0570692655   -1.0667189309    4.6424410287
H        3.7843013883   -2.1832723627    2.6300253276
H        3.7657339716   -2.3590312336    0.1587006174
15   

H        1.9622466719   -1.3205034106   -1.1735149664
C        1.9533621438   -1.2519556370   -0.0890469488
C        2.9810152372   -1.8324718070    0.6600156850
C        2.9731293235   -1.7402411801    2.0575238909
C        1.9333269349   -1.0686010665    2.7273887390
C        0.9077437641   -0.4823868596    1.9565330634
C        0.9178801806   -0.5757838188    0.5604715302
H        0.1228816491   -0.1149999963   -0.0195252453
H        0.1001272537    0.0667669231    2.4337692357
C        1.9291469593   -0.9584922434    4.1957048625
O        2.8728577852   -1.3252648400    4.8365564315
O        0.8133844471   -0.4410311361    4.8144917730
H        0.0849205742   -1.0676986832    4.8165559905
H        3.7823407402   -2.1897395484    2.6292015945
H        3.7909508422   -2.3529938488    0.1569587142
15   

H        2.0138676824   -1.2836254269   -1.1913624647
C        1.9900078150   -1.2263340222   -0.1065058484
C        3.0072225184   -1.8143530358    0.6509473654
C        2.9789938495   -1.7377997066    2.0492302620
C        1.9297284391   -1.0731833376    2.7115362750
C        0.9145017862   -0.4803276681    1.9320816527
C        0.9445476192   -0.5584785386    0.5354350045
H        0.1560558327   -0.0937345225   -0.0501733163
H        0.0968943939    0.0581467890    2.4045030495
C        1.8997871122   -0.9847514010    4.1816005266
O        2.8238530391   -1.3846174627    4.8327035659
O        0.8135777641   -0.3840208727    4.7813433930
H        0.1343895329   -1.0226726858    5.0130015120
H        3.7794850351   -2.1944729631    2.6272878294
H        3.8242857526   -2.3293736850    0.1538878719
15   

H        2.0651856885   -1.2486126461   -1.2060988261
C        2.0250515425   -1.2035225750   -0.1211804284
C        3.0319182166   -1.7979598298    0.6450502531
C        2.9818213150   -1.7382103664    2.0436231551
C        1.9213748075   -1.0828964399    2.6976688607
C        0.9163942680   -0.4844186493    1.9090745228
C        0.9679323972   -0.5462042612    0.5123021781
H        0.1859926190   -0.0782094378   -0.0794028872
H        0.0877488469    0.0422691314    2.3755842612
C        1.8644648008   -1.0160943889    4.1688027370
O        2.7728100942   -1.4446641856    4.8270544181
O        0.8118864082   -0.3497796604    4.7476219735
H        0.2118289264   -0.9483311713    5.2015783603
H        3.7738284193   -2.2011341874    2.6281890560
H        3.8574510777   -2.3057086546    0.1546435548
15   

H        2.1047471906   -1.2303897884   -1.2160849613
C        2.0499311426   -1.1945289379   -0.1314902237
C        3.0479114090   -1.7926807627    0.6434424992
C        2.9783015450   -1.7455560830    2.0417354492
C        1.9076181045   -1.0979640817    2.6870025843
C        0.9113444421   -0.4966146609    1.8893672277
C        0.9819720810   -0.5463504857    0.4930097506
H        0.2056993348   -0.0769417837   -0.1049576508
H        0.0729871199    0.0204294748    2.3493792065
C        1.8283881370   -1.0446122746    4.1582436765
O        2.7179718929   -1.5063816611    4.8231421996
O        0.8069430448   -0.3321011349    4.7179690519
H        0.3143682362   -0.8555188143    5.3592646619
H        3.7632606802   -2.2121026972    2.6327492079
H        3.8814310735   -2.2939733301    0.1600288931
15   

H        2.1379810126   -1.2183722850   -1.2222163612
C        2.0709202227   -1.1879004652   -0.1381608811
C        3.0658955956   -1.7800011125    0.6453171656
C        2.9802648906   -1.7399584597    2.0430126540
C        1.8962988462   -1.1055261255    2.6790665529
C        0.9026955738   -0.5111980968    1.8727799636
C        0.9895190833   -0.5534384953    0.4771487881
H        0.2148170594   -0.0895233230   -0.1270894276
H        0.0530576548   -0.0067511714    2.3262207998
C        1.7990648920   -1.0595077510    4.1496555281
O        2.6824298442   -1.5240885205    4.8235997111
O        0.7732368745   -0.3583201056    4.6950982431
H        0.4261107457   -0.8002211738    5.4800723659
H        3.7626474639   -2.2022096917    2.6406749255
H        3.9092690070   -2.2714195551    0.1689631114
15   

H        2.1582555997   -1.2057098488   -1.2262851932
C        2.0819676422   -1.1808248184   -0.1427061143
C        3.0743684840   -1.7698760463    0.6463718315
C        2.9766104891   -1.7372682332    2.0434943772
C        1.8830524996   -1.1132086852    2.6732531656
C        0.8917490175   -0.5226581215    1.8614186537
C        0.9907193000   -0.5573213033    0.4664049914
H        0.2173815530   -0.0966126365   -0.1420029293
H        0.0339269440   -0.0282428232    2.3106280109
C        1.7732870249   -1.0739648113    4.1431193128
O        2.6438235577   -1.5544947917    4.8245015410
O        0.7398915337   -0.3917709077    4.6809002893
H        0.5372040601   -0.7272520831    5.5655056809
H        3.7566928330   -2.1975524387    2.6456005461
H        3.9249136672   -2.2534572929    0.1747974626
15   

H        2.1780880169   -1.1905811885   -1.2287235289
C        2.0944579481   -1.1705865076   -0.1455902626
C        3.0873023191   -1.7530659159    0.6478730984
C        2.9798321375   -1.7270384509    2.0444459948
C        1.8758705704   -1.1164688600    2.6690163334
C        0.8838840439   -0.5330784862    1.8529457652
C        0.9927706575   -0.5607102620    0.4585394972
H        0.2185850328   -0.1058260195   -0.1531585969
H        0.0173720993   -0.0507742565    2.2987504274
C        1.7556122556   -1.0841983111    4.1380086188
O        2.6168413565   -1.5725990153    4.8267423208
O        0.6983528723   -0.4453050078    4.6712337923
H        0.6316876847   -0.6531752277    5.6154516743
H        3.7597145708   -2.1828281745    2.6501849384
H        3.9453955352   -2.2268831034    0.1800929713
15   

H        2.1947097552   -1.1718831718   -1.2287384907
C        2.1059435394   -1.1574051432   -0.1459279835
C        3.1015684894   -1.7322138472    0.6496835372
C        2.9872631271   -1.7136295565    2.0458507007
C        1.8733529827   -1.1187090845    2.6677265100
C        0.8783354791   -0.5435162623    1.8495569473
C        0.9943549301   -0.5631262354    0.4556078963
H        0.2175716241   -0.1149018843   -0.1577147051
H        0.0034072798   -0.0748166438    2.2934742657
C        1.7453914501   -1.0948628721    4.1361247707
O        2.6008503096   -1.5892390423    4.8282279659
O        0.6573532767   -0.5109993448    4.6661296362
H        0.6999540803   -0.5653297355    5.6333404788
H        3.7687563158   -2.1642675032    2.6533532759
H        3.9667854365   -2.1948489350    0.1838447657
15   

H        2.2017002991   -1.1477878368   -1.2273606754
C        2.1110100081   -1.1405875255   -0.1446350042
C        3.1117566772   -1.7087457233    0.6492847862
C        2.9948056128   -1.6998993199    2.0453103189
C        1.8728425258   -1.1219524991    2.6688412919
C        0.8723926029   -0.5539001203    1.8522818445
C        0.9913954171   -0.5631996257    0.4584595717
H        0.2102773013   -0.1208789971   -0.1536389204
H       -0.0096415147   -0.0997254303    2.2971900438
C        1.7418442730   -1.1091455964    4.1372136933
O        2.5956126918   -1.6110677238    4.8255151724
O        0.6233657383   -0.5811850372    4.6669061589
H        0.7381070498   -0.4603452269    5.6215966941
H        3.7798884726   -2.1462644852    2.6513495854
H        3.9827170311   -2.1592447349    0.1822476873
15   

H        2.2038466973   -1.1230868387   -1.2236523502
C        2.1129290312   -1.1247140725   -0.1409178163
C        3.1191239615   -1.6887659240    0.6489568810
C        3.0017794175   -1.6916532909    2.0449487237
C        1.8738132292   -1.1299504895    2.6727208111
C        0.8675492493   -0.5665131352    1.8600221906
C        0.9872205802   -0.5636614262    0.4662035354
H        0.2015342838   -0.1253322815   -0.1429175958
H       -0.0201857276   -0.1263079219    2.3075043053
C        1.7424952170   -1.1297652323    4.1413428617
O        2.5948125588   -1.6433128635    4.8216728059
O        0.5999815756   -0.6453155250    4.6728259354
H        0.7516274357   -0.3386777537    5.5778857632
H        3.7908749366   -2.1356026396    2.6475755411
H        3.9944204118   -2.1274913138    0.1788117104
15   

H        2.2036298284   -1.0994142338   -1.2184269050
C        2.1128962034   -1.1118394303   -0.1357381268
C        3.1231824829   -1.6761899627    0.6486260668
C        3.0060031065   -1.6933160393    2.0445001478
C        1.8742234532   -1.1455312847    2.6777914121
C        0.8634008528   -0.5824118640    1.8705085415
C        0.9830173700   -0.5652286827    0.4767705745
H        0.1937882893   -0.1276424032   -0.1283079750
H       -0.0285567216   -0.1546566818    2.3215043086
C        1.7438414781   -1.1595802722    4.1464666813
O        2.5896860048   -1.6921495693    4.8182448066
O        0.5891282398   -0.6919400859    4.6844710685
H        0.7563898927   -0.2017431636    5.4991409894
H        3.7980997466   -2.1379604360    2.6427251395
H        4.0014015907   -2.1044610747    0.1742854377
15   

H        2.1958872705   -1.0652203740   -1.2108236711
C        2.1071191452   -1.0908883154   -0.1281889627
C        3.1243632456   -1.6541275203    0.6478567775
C        3.0097324399   -1.6885909247    2.0435506772
C        1.8736606793   -1.1594994552    2.6850420890
C        0.8552355146   -0.5982958774    1.8861270489
C        0.9725638009   -0.5633996572    0.4924655242
H        0.1776771959   -0.1277253889   -0.1065771631
H       -0.0415337878   -0.1871095981    2.3427662810
C        1.7466703787   -1.1927006338    4.1535260743
O        2.5937320746   -1.7315294789    4.8159687824
O        0.5843146081   -0.7355471359    4.7051185344
H        0.7467312763   -0.0720023406    5.3842247046
H        3.8070211351   -2.1327919356    2.6352770027
H        4.0058664097   -2.0684615013    0.1672139648
15   

H        2.1899218855   -1.0225716241   -1.1988961167
C        2.1011777422   -1.0655738392   -0.1167837874
C        3.1202639234   -1.6378631454    0.6501542880
C        3.0053660574   -1.6955477167    2.0449865266
C        1.8679864734   -1.1796572838    2.6945890633
C        0.8470932031   -0.6100207861    1.9050741800
C        0.9644327023   -0.5525592848    0.5121003189
H        0.1675443446   -0.1116576823   -0.0804691671
H       -0.0528254316   -0.2124997947    2.3674680844
C        1.7415377547   -1.2388741136    4.1617086621
O        2.5707483659   -1.8108536126    4.8153960276
O        0.6010843426   -0.7318112742    4.7354542568
H        0.7746778590    0.0717176422    5.2340679807
H        3.8035313199   -2.1473088671    2.6299096591
H        4.0031555931   -2.0416622427    0.1630601593
15   

H        2.1917329079   -0.9612703049   -1.1810979123
C        2.1013602865   -1.0245202035   -0.1000809344
C        3.1207765670   -1.6085501092    0.6574987690
C        3.0033502614   -1.6936499195    2.0506323995
C        1.8638533222   -1.1925596393    2.7077300438
C        0.8420018681   -0.6117091933    1.9278937685
C        0.9617037417   -0.5273762173    0.5364227472
H        0.1639047727   -0.0794989763   -0.0497224230
H       -0.0621479396   -0.2300753606    2.3953200957
C        1.7335388424   -1.2860344471    4.1719997394
O        2.5470548902   -1.8862473052    4.8167177345
O        0.6300298214   -0.7166576198    4.7707461311
H        0.8013009899    0.1859379278    5.0515046476
H        3.8009319769   -2.1555964698    2.6285216215
H        4.0054732668   -2.0009989790    0.1643432411
15   

H        2.1948878644   -0.8988895444   -1.1600878633
C        2.1030024668   -0.9807649118   -0.0804110135
C        3.1218782392   -1.5771882389    0.6681449770
C        3.0020772457   -1.6877822574    2.0591929682
C        1.8614842083   -1.1988059826    2.7232397464
C        0.8394828300   -0.6061004763    1.9525907221
C        0.9614318708   -0.4968584656    0.5629835399
H        0.1633529885   -0.0416572046   -0.0171910616
H       -0.0684968396   -0.2388354470    2.4240331126
C        1.7266404034   -1.3255009760    4.1840133022
O        2.5229630600   -1.9593881536    4.8163580767
O        0.6772146513   -0.6878127990    4.8066287795
H        0.8182109921    0.2612737249    4.8588856084
H        3.7984236010   -2.1605961845    2.6301279710
H        4.0075867905   -1.9603863521    0.1694619560
15   

H        2.1846897575   -0.8580660055   -1.1413871287
C        2.0947343390   -0.9520985328   -0.0624989776
C        3.1146816180   -1.5578580525    0.6769401925
C        2.9972508602   -1.6850467651    2.0666579294
C        1.8587460935   -1.2023709078    2.7387052690
C        0.8347208634   -0.6011989527    1.9772044794
C        0.9542625570   -0.4758406553    0.5886508700
H        0.1548392232   -0.0153531410    0.0144480891
H       -0.0746653810   -0.2433411710    2.4530144595
C        1.7265273604   -1.3498802070    4.1973750642
O        2.5033872645   -2.0224477502    4.8141403649
O        0.7378355067   -0.6540096401    4.8415042669
H        0.8071218129    0.2927487769    4.6857321843
H        3.7940055843   -2.1657046345    2.6305908874
H        3.9992080618   -1.9359251785    0.1721822195
15   

H        2.1537616440   -0.8465257486   -1.1302565161
C        2.0699405977   -0.9455671400   -0.0512891576
C        3.0921848452   -1.5589244572    0.6784679766
C        2.9829300819   -1.6926216696    2.0680821902
C        1.8513202215   -1.2078250060    2.7500659413
C        0.8237569625   -0.6002417830    1.9982836165
C        0.9350642138   -0.4689071821    0.6094506185
H        0.1335971688   -0.0039107554    0.0417069889
H       -0.0831220078   -0.2440661080    2.4798178772
C        1.7320711998   -1.3605416134    4.2090352845
O        2.4827789562   -2.0780719343    4.8083070248
O        0.8064597221   -0.6146808271    4.8726823357
H        0.7703691066    0.2911116053    4.5467541279
H        3.7815570345   -2.1786905482    2.6248304358
H        3.9723027904   -1.9376364803    0.1664475629
15   

H        2.1055895496   -0.8627822251   -1.1262327481
C        2.0317728559   -0.9601808551   -0.0463593871
C        3.0565661912   -1.5809450037    0.6732275637
C        2.9607466127   -1.7118108379    2.0639152450
C        1.8412648819   -1.2157484451    2.7576124861
C        0.8097691613   -0.6019293206    2.0160762092
C        0.9075087311   -0.4740756187    0.6257122816
H        0.1040455692   -0.0040094054    0.0649709969
H       -0.0902781237   -0.2385489781    2.5044926119
C        1.7446223341   -1.3600076061    4.2189671693
O        2.4629092781   -2.1234719283    4.8019672369
O        0.8796570551   -0.5710231832    4.8998162704
H        0.7137027303    0.2641688277    4.4462888539
H        3.7618925722   -2.2022149973    2.6133168520
H        3.9286773363   -1.9667754946    0.1528105585
15   

H        2.0497951729   -0.8992775910   -1.1276264222
C        1.9872140803   -0.9902994866   -0.0464722429
C        3.0112722582   -1.6225187262    0.6637917112
C        2.9305958307   -1.7439336084    2.0561040569
C        1.8284544298   -1.2258656711    2.7613737349
C        0.7964935853   -0.6011968565    2.0292297224
C        0.8787045024   -0.4838333226    0.6367415282
H        0.0759945270   -0.0047460317    0.0825874497
H       -0.0920428305   -0.2197324268    2.5241478173
C        1.7595309640   -1.3521489483    4.2260582469
O        2.4386431647   -2.1607922615    4.7957947108
O        0.9540667574   -0.5217591351    4.9195930511
H        0.6435555903    0.2202057428    4.3848023805
H        3.7321504611   -2.2411668745    2.5988213014
H        3.8717530910   -2.0232569185    0.1352854972
15   

H        1.9917684728   -0.9393173275   -1.1330675676
C        1.9427842832   -1.0198895883   -0.0503786599
C        2.9616657344   -1.6704204000    0.6501030095
C        2.8991395862   -1.7770538944    2.0443336673
C        1.8214185186   -1.2257686519    2.7626942686
C        0.7944177639   -0.5812843209    2.0399397391
C        0.8580379278   -0.4798456450    0.6450017015
H        0.0601485236    0.0153063771    0.0980780693
H       -0.0755082593   -0.1674702428    2.5406514880
C        1.7842871622   -1.3319355372    4.2312349782
O        2.4463606446   -2.1623385220    4.7902618717
O        1.0071228433   -0.4880721497    4.9361936299
H        0.5258446077    0.1308077647    4.3713537733
H        3.6984505181   -2.2866052793    2.5789334395
H        3.8049518336   -2.0955159289    0.1129490272
