15   

H        1.8844934897   -1.1974197228   -1.1372585132
C        1.8989338547   -1.1491124943   -0.0516464096
C        2.9606386725   -1.7132783339    0.6606500284
C        2.9827134175   -1.6488091535    2.0589104696
C        1.9377028470   -1.0273778339    2.7676380928
C        0.8787666357   -0.4514141816    2.0340831726
C        0.8609407902   -0.5150150551    0.6357977365
H        0.0425733668   -0.0641721795    0.0808481350
H        0.0688490377    0.0724055374    2.5336846855
C        1.9680883683   -0.9741836753    4.2380957310
O        2.9986688411   -1.1458666493    4.8281181973
O        0.8176975165   -0.7689074310    4.9117198680
H        0.0392111191   -0.8750488027    4.3499162352
H        3.8160684283   -2.0885455537    2.6033599372
H        3.7727416386   -2.2015674432    0.1292361630
15   

H        1.8836838183   -1.2630100623   -1.1392454076
C        1.8975226320   -1.2019006384   -0.0542864242
C        2.9496726475   -1.7733268989    0.6666856543
C        2.9716429119   -1.6911706199    2.0642106092
C        1.9362480219   -1.0429488998    2.7629975826
C        0.8870062851   -0.4610400046    2.0206384545
C        0.8685993342   -0.5432293244    0.6235234796
H        0.0576356389   -0.0865721078    0.0625007453
H        0.0863565544    0.0823153956    2.5150111807
C        1.9669687079   -0.9570535557    4.2318023284
O        2.9799005709   -1.1865343014    4.8318113293
O        0.8201727735   -0.6788308861    4.8963827097
H        0.0378198781   -0.9607343381    4.4072733019
H        3.7987930164   -2.1346288211    2.6149757355
H        3.7551817266   -2.2796937124    0.1422564260
15   

H        1.8958569100   -1.3125255468   -1.1453664845
C        1.9057477534   -1.2419896785   -0.0609622517
C        2.9499882526   -1.8156631975    0.6699219061
C        2.9671852722   -1.7205180954    2.0668766542
C        1.9351435475   -1.0554380985    2.7547949675
C        0.8935607667   -0.4730761666    2.0023511427
C        0.8794362818   -0.5687343614    0.6062297297
H        0.0740232976   -0.1107501670    0.0383714836
H        0.0955333501    0.0802576232    2.4903453630
C        1.9609905227   -0.9456727612    4.2222483695
O        2.9519553600   -1.2277853219    4.8353878664
O        0.8187513595   -0.5924102168    4.8733903761
H        0.0425735843   -1.0278828458    4.5047395272
H        3.7891216302   -2.1644747159    2.6248737107
H        3.7535383538   -2.3330192586    0.1533502930
15   

H        1.9219723089   -1.3339143857   -1.1566100784
C        1.9243969031   -1.2605735928   -0.0723827242
C        2.9607579142   -1.8366222209    0.6679756163
C        2.9681676813   -1.7376216902    2.0649096427
C        1.9345568715   -1.0648732224    2.7430506092
C        0.9004970189   -0.4818503784    1.9810003180
C        0.8957311208   -0.5817152743    0.5852595455
H        0.0953832771   -0.1228751033    0.0110261418
H        0.0999307264    0.0732031214    2.4631309253
C        1.9493342915   -0.9460609383    4.2102323805
O        2.9158055587   -1.2749738308    4.8379288803
O        0.8161862423   -0.5120029357    4.8460307092
H        0.0570692655   -1.0667189309    4.6424410287
H        3.7844016225   -2.1830016970    2.6299489642
H        3.7659052897   -2.3585277029    0.1586084156
15   

H        1.9614599915   -1.3224504628   -1.1733833025
C        1.9526698701   -1.2536306926   -0.0889317054
C        2.9803844178   -1.8339628292    0.6601906090
C        2.9726533726   -1.7413270645    2.0576741298
C        1.9329483713   -1.0694515008    2.7274529011
C        0.9072830047   -0.4834591211    1.9565352698
C        0.9172639441   -0.5772628606    0.5605015039
H        0.1222320901   -0.1165971676   -0.0195440500
H        0.0997712053    0.0659221783    2.4336876488
C        1.9291469593   -0.9584922434    4.1957048625
O        2.8728577852   -1.3252648400    4.8365564315
O        0.8133844471   -0.4410311361    4.8144917730
H        0.0849205742   -1.0676986832    4.8165559905
H        3.7819589630   -2.1906067265    2.6293902510
H        3.7902752803   -2.3546117221    0.1571932344
15   

H        2.0124576252   -1.2864727647   -1.1912262764
C        1.9887782679   -1.2287884382   -0.1063864532
C        3.0061176313   -1.8165338081    0.6511129590
C        2.9781728022   -1.7393901052    2.0493700462
C        1.9290752788   -1.0744370221    2.7116018375
C        0.9136901301   -0.4819129326    1.9320996199
C        0.9434514330   -0.5606558575    0.5354814556
H        0.1548856721   -0.0960866808   -0.0501666011
H        0.0962560308    0.0568909366    2.4044461826
C        1.8997871122   -0.9847514010    4.1816005266
O        2.8238530391   -1.3846174627    4.8327035659
O        0.8135777641   -0.3840208727    4.7813433930
H        0.1343895329   -1.0226726858    5.0130015120
H        3.7788313068   -2.1957343898    2.6274558015
H        3.8230995201   -2.3317313926    0.1541033000
15   

H        2.0645047604   -1.2497892341   -1.2060703463
C        2.0244613177   -1.2045387313   -0.1211552406
C        3.0313927660   -1.7988616197    0.6450792708
C        2.9814348482   -1.7388690978    2.0436467864
C        1.9210672931   -1.0834185878    2.6976824226
C        0.9160067212   -0.4850800839    1.9090843844
C        0.9674056366   -0.5471092090    0.5123178386
H        0.1854257054   -0.0791870902   -0.0793918033
H        0.0874405018    0.0417428045    2.3755824409
C        1.8644648008   -1.0160943889    4.1688027370
O        2.7728100942   -1.4446641856    4.8270544181
O        0.8118864082   -0.3497796604    4.7476219735
H        0.2118289264   -0.9483311713    5.2015783603
H        3.7735221965   -2.2016537338    2.6282143650
H        3.8568860039   -2.3066805115    0.1546783670
15   

H        2.1054463270   -1.2293148830   -1.2160888773
C        2.0505347187   -1.1935990862   -0.1314942239
C        3.0484457484   -1.7918554299    0.6434470225
C        2.9786918639   -1.7449520475    2.0417404698
C        1.9079283953   -1.0974838464    2.6870002375
C        0.9117388740   -0.4960063974    1.8893557610
C        0.9825107248   -0.5455206048    0.4929979200
H        0.2062819549   -0.0760458249   -0.1049746590
H        0.0733029911    0.0209143292    2.3493632182
C        1.8283881370   -1.0446122746    4.1582436765
O        2.7179718929   -1.5063816611    4.8231421996
O        0.8069430448   -0.3321011349    4.7179690519
H        0.3143682362   -0.8555188143    5.3592646619
H        3.7635692693   -2.2116275224    2.6327607607
H        3.8820066335   -2.2930856298    0.1600399739
15   

H        2.1394889739   -1.2160429605   -1.2221952587
C        2.0722211071   -1.1858848197   -0.1381438964
C        3.0670439289   -1.7782153739    0.6453542232
C        2.9811018989   -1.7386519259    2.0430448105
C        1.8969657221   -1.1044839946    2.6790749402
C        0.9035469972   -0.5098745827    1.8727669204
C        0.9906821405   -0.5516353524    0.4771412681
H        0.2160776789   -0.0875746286   -0.1271102470
H        0.0537422313   -0.0056919625    2.3261890463
C        1.7990648920   -1.0595077510    4.1496555281
O        2.6824298442   -1.5240885205    4.8235997111
O        0.7732368745   -0.3583201056    4.6950982431
H        0.4261107457   -0.8002211738    5.4800723659
H        3.7633065463   -2.2011856391    2.6407208866
H        3.9105047962   -2.2695019187    0.1690192975
15   

H        2.1597452025   -1.2033825420   -1.2262396153
C        2.0832522515   -1.1788105867   -0.1426678875
C        3.0755010836   -1.7680929080    0.6464289087
C        2.9774350724   -1.7359636492    2.0435415129
C        1.8837100028   -1.1121667138    2.6732721669
C        0.8925900885   -0.5213332743    1.8614180033
C        0.9918685986   -0.5555175979    0.4664149824
H        0.2186284327   -0.0946625781   -0.1420061582
H        0.0346042880   -0.0271807703    2.3106039041
C        1.7732870249   -1.0739648113    4.1431193128
O        2.6438235577   -1.5544947917    4.8245015410
O        0.7398915337   -0.3917709077    4.6809002893
H        0.5372040601   -0.7272520831    5.5655056809
H        3.7573405117   -2.1965311838    2.6456597459
H        3.9261320560   -2.2515436809    0.1748757981
15   

H        2.1789414862   -1.1891638874   -1.2286857849
C        2.0951946508   -1.1693603277   -0.1455580427
C        3.0879518936   -1.7519819620    0.6479100105
C        2.9803054186   -1.7262461339    2.0444749324
C        1.8762485919   -1.1158353095    2.6690326469
C        0.8843675870   -0.5322711844    1.8529575851
C        0.9934305700   -0.5596112028    0.4585595511
H        0.2193008090   -0.1046365719   -0.1531420355
H        0.0177617147   -0.0501255762    2.2987512790
C        1.7556122556   -1.0841983111    4.1380086188
O        2.6168413565   -1.5725990153    4.8267423208
O        0.6983528723   -0.4453050078    4.6712337923
H        0.6316876847   -0.6531752277    5.6154516743
H        3.7600852350   -2.1822087616    2.6502157129
H        3.9460934593   -2.2257202469    0.1801387634
15   

H        2.1947092239   -1.1718833845   -1.2287385305
C        2.1059431181   -1.1574053238   -0.1459280154
C        3.1015682504   -1.7322138254    0.6496834327
C        2.9872630287   -1.7136294993    2.0458506114
C        1.8733528483   -1.1187091792    2.6677264994
C        0.8783351597   -0.5435165626    1.8495570045
C        0.9943544662   -0.5631265773    0.4556079452
H        0.2175710171   -0.1149023823   -0.1577145929
H        0.0034069184   -0.0748170698    2.2934743754
C        1.7453914501   -1.0948628721    4.1361247707
O        2.6008503096   -1.5892390423    4.8282279659
O        0.6573532767   -0.5109993448    4.6661296362
H        0.6999540803   -0.5653297355    5.6333404788
H        3.7687563528   -2.1642672853    2.6533531349
H        3.9667852307   -2.1948487789    0.1838445897
15   

H        2.2009563165   -1.1492652352   -1.2274151622
C        2.1103654796   -1.1418642101   -0.1446825324
C        3.1111857898   -1.7098733087    0.6492512106
C        2.9943874683   -1.7007223018    2.0452877629
C        1.8725081398   -1.1226098587    2.6688164745
C        0.8719677479   -0.5547388734    1.8522412421
C        0.9908177536   -0.5643431175    0.4584081956
H        0.2096531247   -0.1221176109   -0.1536996864
H       -0.0099820664   -0.1003998226    2.2971487797
C        1.7418442730   -1.1091455964    4.1372136933
O        2.5956126918   -1.6110677238    4.8255151724
O        0.6233657383   -0.5811850372    4.6669061589
H        0.7381070498   -0.4603452269    5.6215966941
H        3.7795617058   -2.1469088232    2.6513400515
H        3.9821049748   -2.1604556279    0.1822178086
15   

H        2.2026724018   -1.1255865305   -1.2237605837
C        2.1119103172   -1.1268735139   -0.1410125810
C        3.1182190802   -1.6906747738    0.6488962425
C        3.0011151357   -1.6930466560    2.0449098206
C        1.8732825912   -1.1310615618    2.6726712155
C        0.8668778596   -0.5679289799    1.8599342905
C        0.9863084297   -0.5655931364    0.4660945799
H        0.2005507491   -0.1274237634   -0.1430494589
H       -0.0207216846   -0.1274444490    2.3074102687
C        1.7424952170   -1.1297652323    4.1413428617
O        2.5948125588   -1.6433128635    4.8216728059
O        0.5999815756   -0.6453155250    4.6728259354
H        0.7516274357   -0.3386777537    5.5778857632
H        3.7903555185   -2.1366962858    2.6475672124
H        3.9934504030   -2.1295431208    0.1787635492
15   

H        2.2024644067   -1.1019290221   -1.2185601203
C        2.1118856353   -1.1140121139   -0.1358545660
C        3.1222842922   -1.6781125461    0.6485449178
C        3.0053441110   -1.6947203189    2.0444458770
C        1.8736979572   -1.1466497787    2.6777309700
C        0.8627365645   -0.5838348206    1.8704080806
C        0.9821136815   -0.5671704596    0.4766438248
H        0.1928140086   -0.1297432851   -0.1284576797
H       -0.0290860063   -0.1557969620    2.3214026202
C        1.7438414781   -1.1595802722    4.1464666813
O        2.5896860048   -1.6921495693    4.8182448066
O        0.5891282398   -0.6919400859    4.6844710685
H        0.7563898927   -0.2017431636    5.4991409894
H        3.7975842088   -2.1390648546    2.6427031656
H        4.0004379576   -2.1065287998    0.1742145323
15   

H        2.1953516596   -1.0663829505   -1.2108989025
C        2.1066551770   -1.0918929581   -0.1282546199
C        3.1239504491   -1.6550185072    0.6478065671
C        3.0094298794   -1.6892425007    2.0435156499
C        1.8734203077   -1.1600171137    2.6850079409
C        0.8549320679   -0.5989522604    1.8860753065
C        0.9721499435   -0.5642958064    0.4923987126
H        0.1772310969   -0.1286935607   -0.1066535316
H       -0.0417746824   -0.1876336552    2.3427181776
C        1.7466703787   -1.1927006338    4.1535260743
O        2.5937320746   -1.7315294789    4.8159687824
O        0.5843146081   -0.7355471359    4.7051185344
H        0.7467312763   -0.0720023406    5.3842247046
H        3.8067837146   -2.1333062461    2.6352569570
H        4.0054226896   -2.0694208424    0.1671661235
15   

H        2.1905527055   -1.0213714350   -1.1987918828
C        2.1017213661   -1.0645355119   -0.1166931189
C        3.1207452550   -1.6369406571    0.6502415057
C        3.0057161458   -1.6948717496    2.0450527534
C        1.8682634886   -1.1791201765    2.6946363797
C        0.8474454412   -0.6093416719    1.9051267120
C        0.9649164301   -0.5516332330    0.5121742787
H        0.1680682899   -0.1106587293   -0.0803951834
H       -0.0525448140   -0.2119588700    2.3675002012
C        1.7415377547   -1.2388741136    4.1617086621
O        2.5707483659   -1.8108536126    4.8153960276
O        0.6010843426   -0.7318112742    4.7354542568
H        0.7746778590    0.0717176422    5.2340679807
H        3.8038064645   -2.1467749002    2.6299686467
H        4.0036748588   -2.0406693285    0.1631577028
15   

H        2.1933838296   -0.9585711176   -1.1807850642
C        2.1027758301   -1.0221816356   -0.0998088789
C        3.1220259366   -1.6064648725    0.6578003069
C        3.0042527137   -1.6921171763    2.0508717274
C        1.8645628351   -1.1913439587    2.7078742591
C        0.8429085078   -0.6101807014    1.9280108463
C        0.9629582906   -0.5252938750    0.5366048010
H        0.1652688158   -0.0772590709   -0.0495695870
H       -0.0614251967   -0.2288646800    2.3953416689
C        1.7335388424   -1.2860344471    4.1719997394
O        2.5470548902   -1.8862473052    4.8167177345
O        0.6300298214   -0.7166576198    4.7707461311
H        0.8013009899    0.1859379278    5.0515046476
H        3.8016447689   -2.1543816460    2.6287685757
H        4.0068273590   -1.9987535746    0.1647054070
15   

H        2.1961107748   -0.8971946123   -1.1598401312
C        2.1040462164   -0.9792937828   -0.0801955008
C        3.1227976699   -1.5758697327    0.6684094687
C        3.0027374177   -1.6868091304    2.0594088570
C        1.8619994838   -1.1980365100    2.7233555336
C        0.8401433872   -0.6051405950    1.9526576735
C        0.9623526584   -0.4955519896    0.5631022685
H        0.1643571137   -0.0402574478   -0.0171143828
H       -0.0679705731   -0.2380812210    2.4240024611
C        1.7266404034   -1.3255009760    4.1840133022
O        2.5229630600   -1.9593881536    4.8163580767
O        0.6772146513   -0.6878127990    4.8066287795
H        0.8182109921    0.2612737249    4.8588856084
H        3.7989481600   -2.1598207725    2.6303690372
H        4.0085880874   -1.9589652254    0.1697933760
15   

H        2.1842844010   -0.8585493529   -1.1414678108
C        2.0943895724   -0.9525189076   -0.0625691293
C        3.1143781685   -1.5582368950    0.6768464661
C        2.9970339194   -1.6853276756    2.0665799126
C        1.8585778485   -1.2025923899    2.7386674156
C        0.8345048541   -0.6014728601    1.9771906122
C        0.9539596625   -0.4762129775    0.5886199492
H        0.1545082490   -0.0157503475    0.0144365489
H       -0.0748373113   -0.2435546462    2.4530390373
C        1.7265273604   -1.3498802070    4.1973750642
O        2.5033872645   -2.0224477502    4.8141403649
O        0.7378355067   -0.6540096401    4.8415042669
H        0.8071218129    0.2927487769    4.6857321843
H        3.7938323168   -2.1659298057    2.6304988121
H        3.9988762734   -1.9363338782    0.1720610212
15   

H        2.1519654343   -0.8483859257   -1.1305807120
C        2.0684167202   -0.9471890397   -0.0515704032
C        3.0908446082   -1.5603924139    0.6780555341
C        2.9819750947   -1.6937156719    2.0677329287
C        1.8505828784   -1.2086876665    2.7499151893
C        0.8228089455   -0.6013011433    1.9982675327
C        0.9337291887   -0.4703427912    0.6093645010
H        0.1321359222   -0.0054370187    0.0417260223
H       -0.0838769526   -0.2448884254    2.4799884375
C        1.7320711998   -1.3605416134    4.2090352845
O        2.4827789562   -2.0780719343    4.8083070248
O        0.8064597221   -0.6146808271    4.8726823357
H        0.7703691066    0.2911116053    4.5467541279
H        3.7807920964   -2.1795706896    2.6243960850
H        3.9708333699   -1.9392193930    0.1658971686
15   

H        2.1034458065   -0.8647367047   -1.1265591366
C        2.0299572343   -0.9618895880   -0.0466412625
C        3.0549719748   -1.5824924147    0.6727649365
C        2.9596139369   -1.7129687784    2.0635169268
C        1.8403916193   -1.2166667386    2.7574642689
C        0.8086431611   -0.6030554947    2.0161144397
C        0.9059192888   -0.4755938054    0.6256774472
H        0.1023024467   -0.0056224320    0.0650783834
H       -0.0911779802   -0.2394279400    2.5047619640
C        1.7446223341   -1.3600076061    4.2189671693
O        2.4629092781   -2.1234719283    4.8019672369
O        0.8796570551   -0.5710231832    4.8998162704
H        0.7137027303    0.2641688277    4.4462888539
H        3.7609857180   -2.2031444859    2.6127944010
H        3.9269274200   -1.9684390513    0.1521718727
15   

H        2.0483846816   -0.9004155407   -1.1277959690
C        1.9860204429   -0.9912976973   -0.0466174933
C        3.0102282932   -1.6234168851    0.6635163744
C        2.9298561591   -1.7446074137    2.0558629961
C        1.8278819903   -1.2264087541    2.7613002844
C        0.7957506870   -0.6018690776    2.0292907428
C        0.8776564536   -0.4847310897    0.6367624336
H        0.0748416238   -0.0057040750    0.0827091191
H       -0.0926423498   -0.2202686642    2.5243606652
C        1.7595309640   -1.3521489483    4.2260582469
O        2.4386431647   -2.1607922615    4.7957947108
O        0.9540667574   -0.5217591351    4.9195930511
H        0.6435555903    0.2202057428    4.3848023805
H        3.7315616464   -2.2417002262    2.5984871095
H        3.8706087143   -2.0242145365    0.1348908429
15   

H        1.9917976955   -0.9392949368   -1.1330649345
C        1.9428090336   -1.0198698955   -0.0503764300
C        2.9616871570   -1.6704031174    0.6501079050
C        2.8991547173   -1.7770409823    2.0443380051
C        1.8214304239   -1.2257578357    2.7626953320
C        0.7944334696   -0.5812704466    2.0399380484
C        0.8580599251   -0.4798274015    0.6450006747
H        0.0601728752    0.0153261763    0.0980749970
H       -0.0754952662   -0.1674585380    2.5406468828
C        1.7842871622   -1.3319355372    4.2312349782
O        2.4463606446   -2.1623385220    4.7902618717
O        1.0071228433   -0.4880721497    4.9361936299
H        0.5258446077    0.1308077647    4.3713537733
H        3.6984623429   -2.2865954882    2.5789397228
H        3.8049751382   -2.0954978583    0.1129562737
