15   

H        1.8844934608   -1.1974205389   -1.1372584635
C        1.8989338307   -1.1491131554   -0.0516463681
C        2.9606386097   -1.7132789663    0.6606501502
C        2.9827133552   -1.6488095865    2.0589105798
C        1.9377028162   -1.0273781122    2.7676381091
C        0.8787666499   -0.4514144826    2.0340831086
C        0.8609408095   -0.5150155412    0.6357976828
H        0.0425734261   -0.0641726722    0.0808480166
H        0.0688490948    0.0724053747    2.5336845482
C        1.9680883683   -0.9741836753    4.2380957310
O        2.9986688411   -1.1458666493    4.8281181973
O        0.8176975165   -0.7689074310    4.9117198680
H        0.0392111191   -0.8750488027    4.3499162352
H        3.8160683488   -2.0885459429    2.6033601104
H        3.7727415468   -2.2015682041    0.1292363578
15   

H        1.8836836541   -1.2630110036   -1.1392453330
C        1.8975224632   -1.2019014845   -0.0542863573
C        2.9496725237   -1.7733276002    0.6666857724
C        2.9716428068   -1.6911711520    2.0642107165
C        1.9362478941   -1.0429493935    2.7629976191
C        0.8870061019   -0.4610406722    2.0206384339
C        0.8685991275   -0.5432301663    0.6235234772
H        0.0576354024   -0.0865730484    0.0625007052
H        0.0863563659    0.0823147864    2.5150110841
C        1.9669687079   -0.9570535557    4.2318023284
O        2.9799005709   -1.1865343014    4.8318113293
O        0.8201727735   -0.6788308861    4.8963827097
H        0.0378198781   -0.9607343381    4.4072733019
H        3.7987929771   -2.1346291833    2.6149758795
H        3.7551816466   -2.2796943965    0.1422565955
15   

H        1.8958566001   -1.3125272534   -1.1453663694
C        1.9057474550   -1.2419911449   -0.0609621520
C        2.9499879567   -1.8156645103    0.6699221245
C        2.9671850180   -1.7205190592    2.0668768516
C        1.9351433293   -1.0554388610    2.7547950264
C        0.8935605368   -0.4730771043    2.0023510790
C        0.8794360127   -0.5687356454    0.6062296906
H        0.0740230472   -0.1107515419    0.0383713454
H        0.0955331833    0.0802568944    2.4903451689
C        1.9609905227   -0.9456727612    4.2222483695
O        2.9519553600   -1.2277853219    4.8353878664
O        0.8187513595   -0.5924102168    4.8733903761
H        0.0425735843   -1.0278828458    4.5047395272
H        3.7891214214   -2.1644754823    2.6248739974
H        3.7535380522   -2.3330206833    0.1533506131
15   

H        1.9219714217   -1.3339167485   -1.1566099060
C        1.9243961294   -1.2605756210   -0.0723825736
C        2.9607572648   -1.8366239367    0.6679758411
C        2.9681672018   -1.7376229307    2.0649098376
C        1.9345564514   -1.0648742622    2.7430506960
C        0.9004964594   -0.4818517576    1.9810003232
C        0.8957303834   -0.5817171473    0.5852595892
H        0.0953824676   -0.1228771735    0.0110261273
H        0.0999302501    0.0732019690    2.4631308134
C        1.9493342915   -0.9460609383    4.2102323805
O        2.9158055587   -1.2749738308    4.8379288803
O        0.8161862423   -0.5120029357    4.8460307092
H        0.0570692655   -1.0667189309    4.6424410287
H        3.7844012791   -2.1830026282    2.6299492066
H        3.7659046282   -2.3585295035    0.1586087092
15   

H        1.9614589374   -1.3224534691   -1.1733830910
C        1.9526689227   -1.2536332741   -0.0889315202
C        2.9803834483   -1.8339652813    0.6601909260
C        2.9726526003   -1.7413288938    2.0576744068
C        1.9329478179   -1.0694528182    2.7274530043
C        0.9072824322   -0.4834606457    1.9565352419
C        0.9172631837   -0.5772649937    0.5605015173
H        0.1222313774   -0.1165993545   -0.0195441451
H        0.0997708470    0.0659211029    2.4336874669
C        1.9291469593   -0.9584922434    4.1957048625
O        2.8728577852   -1.3252648400    4.8365564315
O        0.8133844471   -0.4410311361    4.8144917730
H        0.0849205742   -1.0676986832    4.8165559905
H        3.7819582379   -2.1906083530    2.6293906224
H        3.7902741787   -2.3546144977    0.1571936745
15   

H        2.0124562996   -1.2864754844   -1.1912261469
C        1.9887770988   -1.2287908025   -0.1063863402
C        3.0061165719   -1.8165359221    0.6511131207
C        2.9781719961   -1.7393916774    2.0493701833
C        1.9290746265   -1.0744382794    2.7116019009
C        0.9136893328   -0.4819144985    1.9320996333
C        0.9434503839   -0.5606579657    0.5354814931
H        0.1548845698   -0.0960889376   -0.0501666106
H        0.0962554003    0.0568896868    2.4044461219
C        1.8997871122   -0.9847514010    4.1816005266
O        2.8238530391   -1.3846174627    4.8327035659
O        0.8135777641   -0.3840208727    4.7813433930
H        0.1343895329   -1.0226726858    5.0130015120
H        3.7788306651   -2.1957356455    2.6274559610
H        3.8230983963   -2.3317336562    0.1541035127
15   

H        2.0645033661   -1.2497922009   -1.2060702541
C        2.0244600876   -1.2045412775   -0.1211551597
C        3.0313916636   -1.7988638503    0.6450794239
C        2.9814340156   -1.7388706973    2.0436469206
C        1.9210666134   -1.0834198493    2.6976824615
C        0.9160058691   -0.4850817363    1.9090843561
C        0.9674045129   -0.5471114909    0.5123178264
H        0.1854244944   -0.0791895975   -0.0793918787
H        0.0874398029    0.0417414471    2.3755823500
C        1.8644648008   -1.0160943889    4.1688027370
O        2.7728100942   -1.4446641856    4.8270544181
O        0.8118864082   -0.3497796604    4.7476219735
H        0.2118289264   -0.9483311713    5.2015783603
H        3.7735215313   -2.2016549762    2.6282145520
H        3.8568848358   -2.3066829179    0.1546785941
15   

H        2.1054450678   -1.2293170077   -1.2160888760
C        2.0505336226   -1.1936009204   -0.1314942226
C        3.0484447522   -1.7918570842    0.6434470343
C        2.9786911125   -1.7449532738    2.0417404800
C        1.9079278108   -1.0974847901    2.6870002396
C        0.9117381538   -0.4960075785    1.8893557562
C        0.9825097523   -0.5455222240    0.4929979146
H        0.2062809150   -0.0760475680   -0.1049746752
H        0.0733024222    0.0209133935    2.3493632132
C        1.8283881370   -1.0446122746    4.1582436765
O        2.7179718929   -1.5063816611    4.8231421996
O        0.8069430448   -0.3321011349    4.7179690519
H        0.3143682362   -0.8555188143    5.3592646619
H        3.7635686389   -2.2116285363    2.6327607783
H        3.8820055594   -2.2930874240    0.1600399959
15   

H        2.1394878895   -1.2160444242   -1.2221952750
C        2.0722201872   -1.1858860856   -0.1381439093
C        3.0670431528   -1.7782164508    0.6453541698
C        2.9811013540   -1.7386527032    2.0430447626
C        1.8969652753   -1.1044846495    2.6790749327
C        0.9035463894   -0.5098754574    1.8727669498
C        0.9906812962   -0.5516365319    0.4771412933
H        0.2160767292   -0.0875759459   -0.1271101927
H        0.0537417182   -0.0056927079    2.3261891060
C        1.7990648920   -1.0595077510    4.1496555281
O        2.6824298442   -1.5240885205    4.8235997111
O        0.7732368745   -0.3583201056    4.6950982431
H        0.4261107457   -0.8002211738    5.4800723659
H        3.7633061448   -2.2011862064    2.6407208110
H        3.9105039700   -2.2695030439    0.1690192057
15   

H        2.1597445125   -1.2033834501   -1.2262396628
C        2.0832516582   -1.1788113884   -0.1426679311
C        3.0755005273   -1.7680936894    0.6464288334
C        2.9774346684   -1.7359642439    2.0435414456
C        1.8837097145   -1.1121671457    2.6732721457
C        0.8925897504   -0.5213337577    1.8614180054
C        0.9918681081   -0.5555182593    0.4664149790
H        0.2186279166   -0.0946632378   -0.1420061286
H        0.0346040515   -0.0271810968    2.3106039249
C        1.7732870249   -1.0739648113    4.1431193128
O        2.6438235577   -1.5544947917    4.8245015410
O        0.7398915337   -0.3917709077    4.6809002893
H        0.5372040601   -0.7272520831    5.5655056809
H        3.7573401723   -2.1965317075    2.6456596446
H        3.9261314316   -2.2515445583    0.1748756957
15   

H        2.1789414328   -1.1891641806   -1.2286857881
C        2.0951945644   -1.1693606188   -0.1455580482
C        3.0879518092   -1.7519822216    0.6479100246
C        2.9803053201   -1.7262463601    2.0444749449
C        1.8762484903   -1.1158355177    2.6690326408
C        0.8843674633   -0.5322714678    1.8529575579
C        0.9934304545   -0.5596115249    0.4585595242
H        0.2193006828   -0.1046369266   -0.1531420742
H        0.0177615837   -0.0501258579    2.2987512365
C        1.7556122556   -1.0841983111    4.1380086188
O        2.6168413565   -1.5725990153    4.8267423208
O        0.6983528723   -0.4453050078    4.6712337923
H        0.6316876847   -0.6531752277    5.6154516743
H        3.7600851479   -2.1822089423    2.6502157417
H        3.9460933935   -2.2257204859    0.1801387924
15   

H        2.1947095119   -1.1718836673   -1.2287384970
C        2.1059433350   -1.1574055225   -0.1459279890
C        3.1015684001   -1.7322140101    0.6496835438
C        2.9872630981   -1.7136295976    2.0458507086
C        1.8733529061   -1.1187092129    2.6677265081
C        0.8783352896   -0.5435165974    1.8495569341
C        0.9943546738   -0.5631266956    0.4556078782
H        0.2175712773   -0.1149025111   -0.1577147329
H        0.0034070481   -0.0748170508    2.2934742417
C        1.7453914501   -1.0948628721    4.1361247707
O        2.6008503096   -1.5892390423    4.8282279659
O        0.6573532767   -0.5109993448    4.6661296362
H        0.6999540803   -0.5653297355    5.6333404788
H        3.7687563716   -2.1642673799    2.6533532957
H        3.9667853884   -2.1948490279    0.1838447810
15   

H        2.2009567956   -1.1492645436   -1.2274151100
C        2.1103658813   -1.1418636198   -0.1446824874
C        3.1111861633   -1.7098727440    0.6492512713
C        2.9943877286   -1.7007218876    2.0452878132
C        1.8725083139   -1.1226095786    2.6688164932
C        0.8719679648   -0.5547385497    1.8522412459
C        0.9908180786   -0.5643426428    0.4584082105
H        0.2096534725   -0.1221171202   -0.1536996878
H       -0.0099819120   -0.1003996008    2.2971487633
C        1.7418442730   -1.1091455964    4.1372136933
O        2.5956126918   -1.6110677238    4.8255151724
O        0.6233657383   -0.5811850372    4.6669061589
H        0.7381070498   -0.4603452269    5.6215966941
H        3.7795619293   -2.1469084502    2.6513401189
H        3.9821054028   -2.1604549867    0.1822178976
15   

H        2.2026728311   -1.1255855781   -1.2237605429
C        2.1119106836   -1.1268727088   -0.1410125459
C        3.1182193490   -1.6906741796    0.6488962544
C        3.0011153202   -1.6930462588    2.0449098253
C        1.8732827875   -1.1310611552    2.6726712349
C        0.8668781525   -0.5679283663    1.8599343327
C        0.9863088105   -0.5655923228    0.4660946312
H        0.2005512034   -0.1274227992   -0.1430493940
H       -0.0207214010   -0.1274438592    2.3074103149
C        1.7424952170   -1.1297652323    4.1413428617
O        2.5948125588   -1.6433128635    4.8216728059
O        0.5999815756   -0.6453155250    4.6728259354
H        0.7516274357   -0.3386777537    5.5778857632
H        3.7903556021   -2.1366960981    2.6475671983
H        3.9934506474   -2.1295425594    0.1787635489
15   

H        2.2024651799   -1.1019273938   -1.2185600327
C        2.1118863087   -1.1140107068   -0.1358544892
C        3.1222849523   -1.6781111823    0.6485449812
C        3.0053446113   -1.6947192807    2.0444459221
C        1.8736983049   -1.1466490483    2.6777310109
C        0.8627369431   -0.5838340135    1.8704081396
C        0.9821142218   -0.5671693228    0.4766439016
H        0.1928145481   -0.1297421419   -0.1284575951
H       -0.0290857612   -0.1557964261    2.3214026769
C        1.7438414781   -1.1595802722    4.1464666813
O        2.5896860048   -1.6921495693    4.8182448066
O        0.5891282398   -0.6919400859    4.6844710685
H        0.7563898927   -0.2017431636    5.4991409894
H        3.7975846657   -2.1390639116    2.6427031971
H        4.0004387057   -2.1065272599    0.1742145975
15   

H        2.1953528534   -1.0663809040   -1.2108987493
C        2.1066562040   -1.0918911719   -0.1282544881
C        3.1239513327   -1.6550169541    0.6478067139
C        3.0094305057   -1.6892413502    2.0435157645
C        1.8734208116   -1.1600161585    2.6850080066
C        0.8549327448   -0.5989510219    1.8860753606
C        0.9721508792   -0.5642941574    0.4923987973
H        0.1772321318   -0.1286917580   -0.1066534662
H       -0.0417741162   -0.1876326227    2.3427181955
C        1.7466703787   -1.1927006338    4.1535260743
O        2.5937320746   -1.7315294789    4.8159687824
O        0.5843146081   -0.7355471359    4.7051185344
H        0.7467312763   -0.0720023406    5.3842247046
H        3.8067841833   -2.1333053736    2.6352570733
H        4.0054236251   -2.0694192194    0.1671663012
15   

H        2.1905538001   -1.0213692429   -1.1987917078
C        2.1017223342   -1.0645335750   -0.1166929626
C        3.1207461277   -1.6369389141    0.6502416416
C        3.0057168116   -1.6948704185    2.0450528576
C        1.8682640348   -1.1791190896    2.6946364681
C        0.8474461156   -0.6093403265    1.9051268187
C        0.9649173126   -0.5516314674    0.5121744185
H        0.1680692352   -0.1106568489   -0.0803950415
H       -0.0525442708   -0.2119577795    2.3675002721
C        1.7415377547   -1.2388741136    4.1617086621
O        2.5707483659   -1.8108536126    4.8153960276
O        0.6010843426   -0.7318112742    4.7354542568
H        0.7746778590    0.0717176422    5.2340679807
H        3.8038070003   -2.1467738248    2.6299687288
H        4.0036757882   -2.0406674738    0.1631578460
15   

H        2.1933857306   -0.9585679028   -1.1807847085
C        2.1027774545   -1.0221788591   -0.0998085719
C        3.1220273669   -1.6064624024    0.6578006423
C        3.0042537310   -1.6921153877    2.0508719875
C        1.8645636257   -1.1913425601    2.7078744183
C        0.8429095354   -0.6101789058    1.9280109821
C        0.9629597275   -0.5252914039    0.5366050123
H        0.1652703865   -0.0772563936   -0.0495694041
H       -0.0614243739   -0.2288632403    2.3953417030
C        1.7335388424   -1.2860344471    4.1719997394
O        2.5470548902   -1.8862473052    4.8167177345
O        0.6300298214   -0.7166576198    4.7707461311
H        0.8013009899    0.1859379278    5.0515046476
H        3.8016455681   -2.1543802236    2.6287688413
H        4.0068289234   -1.9987508905    0.1647058116
15   

H        2.1961125663   -0.8971923693   -1.1598398010
C        2.1040477481   -0.9792917955   -0.0801952124
C        3.1227990080   -1.5758679552    0.6684098528
C        3.0027383754   -1.6868077914    2.0594091749
C        1.8620002478   -1.1980354078    2.7233556944
C        0.8401443832   -0.6051392128    1.9526577378
C        0.9623540298   -0.4955501720    0.5631023993
H        0.1643586206   -0.0402554956   -0.0171143348
H       -0.0679697568   -0.2380800865    2.4240023698
C        1.7266404034   -1.3255009760    4.1840133022
O        2.5229630600   -1.9593881536    4.8163580767
O        0.6772146513   -0.6878127990    4.8066287795
H        0.8182109921    0.2612737249    4.8588856084
H        3.7989489012   -2.1598197329    2.6303694055
H        4.0085895336   -1.9589633500    0.1697938745
15   

H        2.1842860004   -0.8585476872   -1.1414675023
C        2.0943909336   -0.9525174147   -0.0625688563
C        3.1143793620   -1.5582355350    0.6768468624
C        2.9970347742   -1.6853266202    2.0665802500
C        1.8585785194   -1.2025915240    2.7386675696
C        0.8345057193   -0.6014718053    1.9771906482
C        0.9539608686   -0.4762116146    0.5886200432
H        0.1545095709   -0.0157489146    0.0144365361
H       -0.0748366168   -0.2435537982    2.4530389054
C        1.7265273604   -1.3498802070    4.1973750642
O        2.5033872645   -2.0224477502    4.8141403649
O        0.7378355067   -0.6540096401    4.8415042669
H        0.8071218129    0.2927487769    4.6857321843
H        3.7938329893   -2.1659289544    2.6304992314
H        3.9988775734   -1.9363324489    0.1720615539
15   

H        2.1519663597   -0.8483852144   -1.1305805661
C        2.0684175327   -0.9471883425   -0.0515702689
C        3.0908452940   -1.5603918299    0.6780557503
C        2.9819756136   -1.6937151673    2.0677331250
C        1.8505833405   -1.2086871466    2.7499152801
C        0.8228095518   -0.6013004754    1.9982675369
C        0.9337299670   -0.4703420404    0.6093645297
H        0.1321367816   -0.0054362243    0.0417259690
H       -0.0838764236   -0.2448877995    2.4799883261
C        1.7320711998   -1.3605416134    4.2090352845
O        2.4827789562   -2.0780719343    4.8083070248
O        0.8064597221   -0.6146808271    4.8726823357
H        0.7703691066    0.2911116053    4.5467541279
H        3.7807924744   -2.1795703558    2.6243963335
H        3.9708340605   -1.9392188902    0.1658974536
15   

H        2.1034468343   -0.8647355416   -1.1265589711
C        2.0299580912   -0.9618886209   -0.0466411262
C        3.0549726896   -1.5824916203    0.6727651269
C        2.9596144189   -1.7129682505    2.0635170778
C        1.8403920089   -1.2166663004    2.7574643316
C        0.8086436954   -0.6030548857    2.0161144368
C        0.9059200552   -0.4755929290    0.6256774880
H        0.1023033073   -0.0056214346    0.0650783875
H       -0.0911775388   -0.2394274399    2.5047618661
C        1.7446223341   -1.3600076061    4.2189671693
O        2.4629092781   -2.1234719283    4.8019672369
O        0.8796570551   -0.5710231832    4.8998162704
H        0.7137027303    0.2641688277    4.4462888539
H        3.7609860693   -2.2031441355    2.6127945810
H        3.9269281962   -1.9684381990    0.1521721232
15   

H        2.0483850339   -0.9004154397   -1.1277959586
C        1.9860207561   -0.9912975377   -0.0466174800
C        3.0102284599   -1.6234169262    0.6635164239
C        2.9298562662   -1.7446074483    2.0558630456
C        1.8278821689   -1.2264085921    2.7613003023
C        0.7957510309   -0.6018686667    2.0292907270
C        0.8776568732   -0.4847306633    0.6367624250
H        0.0748421775   -0.0057034452    0.0827090896
H       -0.0926419623   -0.2202680860    2.5243606014
C        1.7595309640   -1.3521489483    4.2260582469
O        2.4386431647   -2.1607922615    4.7957947108
O        0.9540667574   -0.5217591351    4.9195930511
H        0.6435555903    0.2202057428    4.3848023805
H        3.7315616282   -2.2417004430    2.5984871822
H        3.8706088120   -2.0242147492    0.1348909151
15   

H        1.9917977441   -0.9392950161   -1.1330649322
C        1.9428090782   -1.0198699525   -0.0503764250
C        2.9616873232   -1.6704029436    0.6501079478
C        2.8991548700   -1.7770407855    2.0443380505
C        1.8214304445   -1.2257578425    2.7626953368
C        0.7944333798   -0.5812706715    2.0399380206
C        0.8580598452   -0.4798276577    0.6450006444
H        0.0601727052    0.0153257402    0.0980749365
H       -0.0754954472   -0.1674589243    2.5406468329
C        1.7842871622   -1.3319355372    4.2312349782
O        2.4463606446   -2.1623385220    4.7902618717
O        1.0071228433   -0.4880721497    4.9361936299
H        0.5258446077    0.1308077647    4.3713537733
H        3.6984625805   -2.2865951214    2.5789398032
H        3.8049754004   -2.0954975336    0.1129563455
