15   

H        2.1271729622   -1.0610757414   -1.2209014118
C        1.9701895466   -1.0475292200   -0.1458266665
C        3.0517428427   -1.2090818762    0.7250384921
C        2.8496089340   -1.1921315220    2.1114825651
C        1.5750277870   -1.0076546219    2.6408534493
C        0.4892325267   -0.8565615530    1.7591072387
C        0.6850929075   -0.8725807786    0.3736033779
H       -0.1620506804   -0.7512110336   -0.2955391351
H       -0.5139330453   -0.7261668964    2.1592566121
C        1.3363210858   -1.0078906867    4.1002309048
O        0.2532050539   -1.1124340541    4.6203452440
O        2.4619734614   -0.8943814603    4.8444932893
H        2.1478007584   -0.9106858291    5.7603516725
H        3.7101017001   -1.3264421162    2.7620970047
H        4.0522053887   -1.3500597911    0.3259772300
15   

H        2.1246496223   -1.0335582246   -1.2187924298
C        1.9683909145   -1.0309822289   -0.1435314275
C        3.0460755537   -1.2339523617    0.7240822908
C        2.8439259868   -1.2315912278    2.1105048385
C        1.5758537613   -1.0141836917    2.6412106212
C        0.4920515289   -0.8312664557    1.7648206936
C        0.6874149868   -0.8324168552    0.3789798862
H       -0.1568487083   -0.6835758738   -0.2882392912
H       -0.5072636206   -0.6894663412    2.1703975428
C        1.3412581693   -1.0533494998    4.1018494937
O        0.3073782575   -1.3862224383    4.6242210238
O        2.4261758875   -0.7149027684    4.8376133091
H        2.1290457361   -0.7916187194    5.7560149780
H        3.6941599613   -1.4007060900    2.7666499915
H        4.0421698442   -1.3970808089    0.3225634587
15   

H        2.1177449269   -1.0080961072   -1.2164917918
C        1.9639255311   -1.0165761692   -0.1409094642
C        3.0381742161   -1.2615943260    0.7207678678
C        2.8382729610   -1.2736887314    2.1073345668
C        1.5785464729   -1.0245832249    2.6418253198
C        0.4961199575   -0.8062761934    1.7737746474
C        0.6889192418   -0.7926000322    0.3874307128
H       -0.1526107016   -0.6144352729   -0.2760274942
H       -0.4980997744   -0.6504511994    2.1861060297
C        1.3535898644   -1.0994205047    4.1052576715
O        0.4186272776   -1.6454773707    4.6319184925
O        2.3541362653   -0.5472898071    4.8298454167
H        2.0881483952   -0.6791240797    5.7514258252
H        3.6787888678   -1.4750765949    2.7669377776
H        4.0284918310   -1.4467005035    0.3145360799
15   

H        2.1067605778   -0.9837238605   -1.2155332362
C        1.9581514375   -1.0062205292   -0.1394207345
C        3.0296494167   -1.2973250454    0.7117954588
C        2.8360243652   -1.3272288295    2.0988935466
C        1.5870257975   -1.0499551465    2.6422064415
C        0.5058422125   -0.7862417822    1.7866925255
C        0.6923847387   -0.7543509862    0.3996203524
H       -0.1466319976   -0.5407499403   -0.2565023627
H       -0.4808916634   -0.6098394499    2.2079206565
C        1.3771931461   -1.1498765936    4.1105319093
O        0.5893773061   -1.8830917488    4.6473898020
O        2.2370597866   -0.3838115934    4.8190324126
H        2.0116239492   -0.5557868164    5.7446717497
H        3.6699136751   -1.5622553907    2.7556338398
H        4.0120832556   -1.5040851865    0.2969633368
15   

H        2.0896331914   -0.9507901754   -1.2157595365
C        1.9514578115   -0.9933121685   -0.1388610665
C        3.0217381362   -1.3390445601    0.6934664528
C        2.8415350846   -1.3943120820    2.0815637010
C        1.6068433651   -1.0943036303    2.6431602318
C        0.5275842762   -0.7671067126    1.8080133841
C        0.7008690112   -0.7096704885    0.4199562111
H       -0.1361614174   -0.4497451393   -0.2218162756
H       -0.4463801530   -0.5603676018    2.2442929051
C        1.4183744819   -1.2028470139    4.1181755102
O        0.8236908824   -2.0837035743    4.6786892923
O        2.0538797618   -0.2230815865    4.7977142027
H        1.8716592378   -0.4128215247    5.7292572171
H        3.6732241315   -1.6688435346    2.7254200947
H        3.9926313793   -1.5674537927    0.2631016596
15   

H        2.0780869175   -0.9098246263   -1.2148585909
C        1.9525835595   -0.9734705330   -0.1374504937
C        3.0178275871   -1.3854871428    0.6707002873
C        2.8537545594   -1.4680159714    2.0594546257
C        1.6377601395   -1.1415041076    2.6452017903
C        0.5679591734   -0.7298468045    1.8353318160
C        0.7247767416   -0.6452630906    0.4467129423
H       -0.1065117926   -0.3263707558   -0.1756232214
H       -0.3858865020   -0.4777535787    2.2914383607
C        1.4730089987   -1.2405544486    4.1258747246
O        1.1012532053   -2.2147593928    4.7218263265
O        1.7928661008   -0.0917309775    4.7602209354
H        1.6470278023   -0.2803551364    5.6983165645
H        3.6824125234   -1.7907055115    2.6845548138
H        3.9726394175   -1.6427917122    0.2210765789
15   

H        2.0619299441   -0.8790495691   -1.2142884263
C        1.9514688384   -0.9557138748   -0.1360819004
C        3.0114372136   -1.4250710117    0.6471003725
C        2.8664447572   -1.5247666222    2.0368281587
C        1.6710777304   -1.1693990617    2.6487218174
C        0.6126023722   -0.6836220219    1.8642054676
C        0.7500733840   -0.5820559221    0.4747114262
H       -0.0749030037   -0.2118188917   -0.1272486867
H       -0.3175967802   -0.3865710240    2.3416221267
C        1.5383119488   -1.2544280516    4.1318157707
O        1.4097146879   -2.2666544531    4.7662480239
O        1.5123009749   -0.0369476137    4.7172107012
H        1.4075079165   -0.2213766037    5.6616545504
H        3.6920747590   -1.8895828612    2.6426977089
H        3.9478265073   -1.7126185504    0.1774794092
15   

H        2.0487282415   -0.8846210699   -1.2172488966
C        1.9501732754   -0.9588595897   -0.1377204844
C        3.0022849946   -1.4686811791    0.6303329501
C        2.8726607065   -1.5653425127    2.0217252364
C        1.6979208442   -1.1710126480    2.6518016138
C        0.6503152166   -0.6382454301    1.8810806519
C        0.7728985213   -0.5398083095    0.4900044806
H       -0.0447275904   -0.1354385828   -0.0998981937
H       -0.2602933509   -0.3018335556    2.3702924028
C        1.5964290045   -1.2427548451    4.1339544843
O        1.7085418184   -2.2410864406    4.7950790157
O        1.2701428308   -0.0543671493    4.6902017974
H        1.2142095993   -0.2364194898    5.6393667291
H        3.6927049547   -1.9612305390    2.6159929644
H        3.9210358436   -1.7898441901    0.1478198212
15   

H        2.0333482133   -0.9131399946   -1.2227800204
C        1.9445723244   -0.9746811805   -0.1416054000
C        2.9880041263   -1.5117233212    0.6193108917
C        2.8713850995   -1.5919213787    2.0127836059
C        1.7174240984   -1.1528007744    2.6543384806
C        0.6776825404   -0.5944717749    1.8881686725
C        0.7885130661   -0.5127326961    0.4950170087
H       -0.0224194879   -0.0880492555   -0.0898372485
H       -0.2191297143   -0.2253041549    2.3794632416
C        1.6441545613   -1.2154775829    4.1344176728
O        1.9849076384   -2.1537229375    4.8074671940
O        1.0718749692   -0.1194488063    4.6837195291
H        1.0708132199   -0.2971124405    5.6354746366
H        3.6854929444   -2.0098007000    2.6006347392
H        3.8902879229   -1.8671374567    0.1297716662
15   

H        2.0177214923   -0.9530385696   -1.2296520932
C        1.9381291437   -0.9963332877   -0.1468787747
C        2.9725888419   -1.5530640945    0.6115626625
C        2.8683765349   -1.6096800419    2.0070876944
C        1.7361895746   -1.1234446828    2.6558132027
C        0.7023971143   -0.5507017642    1.8890972761
C        0.8022461206   -0.4928421292    0.4939287122
H       -0.0027079764   -0.0551390409   -0.0896010971
H       -0.1835729013   -0.1515383508    2.3766152685
C        1.6838699788   -1.1792633719    4.1339537702
O        2.2303402313   -2.0124054923    4.8120087637
O        0.9059727192   -0.2185082684    4.6851734001
H        0.9568719500   -0.3830067222    5.6380261485
H        3.6777040693   -2.0441232206    2.5899185101
H        3.8587784824   -1.9425880187    0.1185777520
15   

H        1.9967623887   -0.9985488573   -1.2355066733
C        1.9271955685   -1.0218994633   -0.1514282929
C        2.9532646117   -1.5945606884    0.6058808637
C        2.8626774277   -1.6251127168    2.0031200482
C        1.7537231703   -1.0925346466    2.6572694761
C        0.7245635616   -0.5100196122    1.8889142567
C        0.8119452610   -0.4783032897    0.4920856407
H        0.0122840439   -0.0302803527   -0.0909041247
H       -0.1498626664   -0.0810754384    2.3718313685
C        1.7167859944   -1.1395533839    4.1348693982
O        2.4373567390   -1.8226228019    4.8195694351
O        0.7649312104   -0.3497071951    4.6851519026
H        0.8588008727   -0.4876083617    5.6390228350
H        3.6683853173   -2.0734524033    2.5805920375
H        3.8229864726   -2.0170559051    0.1107123108
15   

H        1.9716837685   -1.0475019330   -1.2388639990
C        1.9132133344   -1.0499015422   -0.1538816215
C        2.9316319613   -1.6363231949    0.6029275410
C        2.8559176633   -1.6392787990    2.0013721641
C        1.7711758701   -1.0614683951    2.6583320889
C        0.7462428224   -0.4710201954    1.8892632624
C        0.8193502317   -0.4666599645    0.4912754690
H        0.0247346765   -0.0093775308   -0.0914311779
H       -0.1134980176   -0.0118416766    2.3706635327
C        1.7452535820   -1.0947464362    4.1362315885
O        2.6010901807   -1.5895811598    4.8276185173
O        0.6531705508   -0.5093032251    4.6816360769
H        0.7779856491   -0.6089903945    5.6367401847
H        3.6566943267   -2.0997823771    2.5761517959
H        3.7841533613   -2.0910886789    0.1064277858
15   

H        1.9428083438   -1.0963256652   -1.2386207488
C        1.8962408928   -1.0779957364   -0.1532147315
C        2.9074102594   -1.6776606589    0.6032335742
C        2.8472829559   -1.6530115717    2.0022310415
C        1.7877701653   -1.0308317694    2.6592356365
C        0.7669194506   -0.4332575210    1.8913605383
C        0.8243409805   -0.4558362367    0.4928024689
H        0.0346412442    0.0102408577   -0.0896116032
H       -0.0752432193    0.0541578835    2.3761404134
C        1.7680236527   -1.0466950957    4.1378279895
O        2.7114770644   -1.3258307833    4.8353945750
O        0.5776514625   -0.6891163317    4.6743416155
H        0.7186255934   -0.7416487650    5.6309317255
H        3.6406252391   -2.1237622798    2.5789886702
H        3.7419411448   -2.1639322598    0.1060330654
15   

H        1.9153640854   -1.1385418839   -1.2355605075
C        1.8803414212   -1.1010626263   -0.1502144094
C        2.8824905224   -1.7163503994    0.6063618047
C        2.8371716160   -1.6662333475    2.0052864486
C        1.8045831785   -0.9994947031    2.6597614547
C        0.7894773103   -0.3928857760    1.8941242547
C        0.8314071566   -0.4399933784    0.4956123103
H        0.0476218065    0.0360742032   -0.0866954375
H       -0.0337941403    0.1199069013    2.3852615897
C        1.7840533419   -0.9976994261    4.1397371598
O        2.7616547916   -1.0494982360    4.8426783265
O        0.5419984101   -0.8781429809    4.6641638947
H        0.6825569433   -0.8801513502    5.6221921276
H        3.6205535817   -2.1476980989    2.5866194664
H        3.6978777823   -2.2341902359    0.1092897695
15   

H        1.8897885112   -1.1733116609   -1.2310667738
C        1.8653334941   -1.1182843566   -0.1461792292
C        2.8555595773   -1.7517523526    0.6116652826
C        2.8236111673   -1.6785019759    2.0100256110
C        1.8194261163   -0.9679417384    2.6602269800
C        0.8133159831   -0.3486615862    1.8959988985
C        0.8408644237   -0.4178541849    0.4980397716
H        0.0649308224    0.0702587945   -0.0847937385
H        0.0095145184    0.1890701634    2.3926628457
C        1.7934632355   -0.9448832003    4.1430370010
O        2.7502839752   -0.7666230362    4.8516483970
O        0.5468180624   -1.0710147717    4.6534115658
H        0.6708106148   -1.0220415846    5.6123853684
H        3.5954065006   -2.1730652302    2.5954338523
H        3.6506068937   -2.3015119717    0.1159354766
15   

H        1.8737393482   -1.2017561278   -1.2273502365
C        1.8548440421   -1.1316265233   -0.1432234743
C        2.8264986519   -1.7872613918    0.6201856144
C        2.8015836751   -1.6941567534    2.0176222523
C        1.8244835839   -0.9416422295    2.6591073548
C        0.8359083883   -0.3018935233    1.8917938695
C        0.8555568663   -0.3900063348    0.4947757969
H        0.0933597536    0.1148180132   -0.0919272292
H        0.0524911213    0.2650286233    2.3883477135
C        1.7910699962   -0.8900048866    4.1451899715
O        2.6770102737   -0.4859195492    4.8509845332
O        0.5974157999   -1.2735577574    4.6513677283
H        0.6959098796   -1.1757389466    5.6094470817
H        3.5577835674   -2.2057506038    2.6082045800
H        3.6011895678   -2.3695058790    0.1293566551
15   

H        1.8759941813   -1.2160237364   -1.2250215895
C        1.8528324413   -1.1344744413   -0.1417757120
C        2.7940655717   -1.8190166880    0.6345525945
C        2.7635605273   -1.7112254378    2.0308891714
C        1.8088804705   -0.9196584023    2.6566764989
C        0.8545996174   -0.2450485858    1.8781747219
C        0.8795039841   -0.3474882290    0.4821827671
H        0.1425633296    0.1822969243   -0.1146954822
H        0.0943203137    0.3599500432    2.3653999888
C        1.7699864762   -0.8345619914    4.1451889787
O        2.5399579867   -0.2183024690    4.8314923067
O        0.7111690789   -1.4888469052    4.6709640243
H        0.7857295524   -1.3482309501    5.6257612322
H        3.4961621658   -2.2446379362    2.6313886697
H        3.5494041031   -2.4346844857    0.1544805031
15   

H        1.9106465611   -1.2132796173   -1.2245241001
C        1.8684754703   -1.1259017126   -0.1423056373
C        2.7633789222   -1.8466281971    0.6560121882
C        2.7082077333   -1.7317931572    2.0510529156
C        1.7676188039   -0.9061614372    2.6526979286
C        0.8706339519   -0.1813077605    1.8528038282
C        0.9201931486   -0.2911093536    0.4579934364
H        0.2238368626    0.2723220892   -0.1565536996
H        0.1363160347    0.4686378647    2.3215826986
C        1.7235761227   -0.7864501195    4.1403386036
O        2.3327034541    0.0170083868    4.7929140153
O        0.9060190001   -1.6989712985    4.7090252528
H        0.9623962142   -1.5211176724    5.6587941677
H        3.4062956652   -2.2911159518    2.6686159157
H        3.5024428372   -2.4949347529    0.1939343892
15   

H        1.9514608768   -1.2012023894   -1.2237354327
C        1.8846855230   -1.1143254355   -0.1427153968
C        2.7255928868   -1.8757525994    0.6763715792
C        2.6387882206   -1.7617532588    2.0698602660
C        1.7112776663   -0.9050374246    2.6491887030
C        0.8813241589   -0.1260216148    1.8284331031
C        0.9626031070   -0.2353284631    0.4350648906
H        0.3135533077    0.3652759785   -0.1958564295
H        0.1751449640    0.5660273622    2.2801705754
C        1.6627576143   -0.7599503163    4.1322825295
O        2.0749834754    0.1840236460    4.7509227253
O        1.1553112252   -1.8515652652    4.7458418682
H        1.1933962593   -1.6420435335    5.6901024913
H        3.2972787095   -2.3501739273    2.7037188000
H        3.4482923782   -2.5539656794    0.2316797964
15   

H        1.9884323959   -1.1981717878   -1.2223635749
C        1.8991831300   -1.1130899757   -0.1428245316
C        2.6940529347   -1.9055303865    0.6924233291
C        2.5786730363   -1.7936296870    2.0840381168
C        1.6632396550   -0.9118325715    2.6466059170
C        0.8864723546   -0.0964226022    1.8086644961
C        0.9963929083   -0.2033946269    0.4171693246
H        0.3858291070    0.4242338790   -0.2257659835
H        0.1995299026    0.6232947054    2.2471981026
C        1.5962129775   -0.7529458054    4.1231748595
O        1.7812220763    0.2768979128    4.7161909590
O        1.3883456862   -1.9219443284    4.7700387155
H        1.3885150200   -1.6850536445    5.7087014615
H        3.2045959592   -2.4055556384    2.7287735709
H        3.4041911239   -2.6057745080    0.2618729660
15   

H        2.0149214880   -1.1944442999   -1.2224271103
C        1.9110578775   -1.1123891449   -0.1439610873
C        2.6681554966   -1.9321834109    0.6994086717
C        2.5343863698   -1.8244260447    2.0897928548
C        1.6372779206   -0.9181442789    2.6452156359
C        0.8985683981   -0.0769154525    1.7970061591
C        1.0272050745   -0.1795217247    0.4069584405
H        0.4454532135    0.4694414970   -0.2415040674
H        0.2252660171    0.6605112377    2.2278625758
C        1.5411089085   -0.7595789055    4.1160822823
O        1.4896697931    0.2955813614    4.6937461185
O        1.5887155337   -1.9344695094    4.7856601475
H        1.5334247191   -1.6844558686    5.7194033555
H        3.1353321071   -2.4599893038    2.7355668271
H        3.3639638511   -2.6510315432    0.2761763043
15   

H        2.0401904632   -1.1866235115   -1.2236677185
C        1.9256880916   -1.1083725337   -0.1459963248
C        2.6489148619   -1.9537306437    0.7011561737
C        2.5017305012   -1.8517560583    2.0907516065
C        1.6270662862   -0.9213713044    2.6441669162
C        0.9177631264   -0.0597452133    1.7893951582
C        1.0602875589   -0.1566558142    0.4005042120
H        0.5019664935    0.5104021900   -0.2502088288
H        0.2537795658    0.6897796552    2.2143291841
C        1.4956755607   -0.7734985858    4.1107632085
O        1.2113619973    0.2520745689    4.6764041840
O        1.7686334087   -1.9065748297    4.7996560125
H        1.6502188878   -1.6594031003    5.7283741783
H        3.0806733554   -2.5125348616    2.7312363100
H        3.3291000813   -2.6893841365    0.2814013558
15   

H        2.0648549260   -1.1740144503   -1.2244986376
C        1.9406969838   -1.1009782288   -0.1475290345
C        2.6308888252   -1.9717995924    0.7007446880
C        2.4713793375   -1.8776009104    2.0896492677
C        1.6211153547   -0.9241296484    2.6435138879
C        0.9377949812   -0.0436268473    1.7850007045
C        1.0931447458   -0.1330635764    0.3971583523
H        0.5565612171    0.5511375800   -0.2540570255
H        0.2815444299    0.7154854543    2.2051758736
C        1.4546566499   -0.7934309211    4.1070616868
O        0.9511186087    0.1524007142    4.6606327138
O        1.9392676336   -1.8416878879    4.8143195410
H        1.7607605012   -1.6121245935    5.7380093138
H        3.0265236831   -2.5652979331    2.7226372971
H        3.2946141913   -2.7230497327    0.2822451867
15   

H        2.0869133597   -1.1573568190   -1.2238971898
C        1.9531978145   -1.0915837594   -0.1476030353
C        2.6109762741   -1.9883131178    0.6991181641
C        2.4389648236   -1.9040534453    2.0872114912
C        1.6135344168   -0.9298471498    2.6431869150
C        0.9544077362   -0.0303193660    1.7846256654
C        1.1225171497   -0.1098426781    0.3977283226
H        0.6071070683    0.5915443710   -0.2523109579
H        0.3061436471    0.7364525181    2.2033544916
C        1.4158270656   -0.8205743991    4.1043664813
O        0.7150869652    0.0001981621    4.6434598662
O        2.0995468742   -1.7382239142    4.8286323163
H        1.8698879481   -1.5386220151    5.7479960504
H        2.9660070600   -2.6178585254    2.7151962430
H        3.2580458852   -2.7535749774    0.2799109565
