15   

H        1.8844255630   -1.1979921085   -1.1372345828
C        1.8988669464   -1.1496028014   -0.0516261521
C        2.9605722322   -1.7137135609    0.6607142506
C        2.9826559548   -1.6491244765    2.0589699219
C        1.9376535153   -1.0276238193    2.7676479932
C        0.8787126076   -0.4517256244    2.0340470863
C        0.8608775578   -0.5154469265    0.6357682400
H        0.0425125136   -0.0646408367    0.0807849412
H        0.0688084500    0.0721577063    2.5336039060
C        1.9680883683   -0.9741836753    4.2380957310
O        2.9986688411   -1.1458666493    4.8281181973
O        0.8176975165   -0.7689074310    4.9117198680
H        0.0392111191   -0.8750488027    4.3499162352
H        3.8160223407   -2.0887981513    2.6034523027
H        3.7726752573   -2.2020413794    0.1293363399
15   

H        1.8835218364   -1.2639070685   -1.1391915318
C        1.8973712694   -1.2026693648   -0.0542399182
C        2.9495254375   -1.7740131255    0.6667928996
C        2.9715222469   -1.6916690544    2.0643076318
C        1.9361496080   -1.0433349716    2.7630223970
C        0.8868966791   -0.4615245378    2.0205997768
C        0.8684627605   -0.5439026923    0.6234977071
H        0.0575008690   -0.0872996121    0.0624278453
H        0.0862765880    0.0819354016    2.5149060623
C        1.9669687079   -0.9570535557    4.2318023284
O        2.9799005709   -1.1865343014    4.8318113293
O        0.8201727735   -0.6788308861    4.8963827097
H        0.0378198781   -0.9607343381    4.4072733019
H        3.7986940147   -2.1350314772    2.6151169092
H        3.7550282609   -2.2804431718    0.1424155347
15   

H        1.8956692894   -1.3132854403   -1.1453110692
C        1.9055774043   -1.2426414500   -0.0609140263
C        2.9498265416   -1.8162454856    0.6700133142
C        2.9670573878   -1.7209414957    2.0669577074
C        1.9350411839   -1.0557661538    2.7548215425
C        0.8934432565   -0.4734873725    2.0023326475
C        0.8792845978   -0.5693053609    0.6062235990
H        0.0738696564   -0.1113662750    0.0383313980
H        0.0954466639    0.0799362597    2.4902758432
C        1.9609905227   -0.9456727612    4.2222483695
O        2.9519553600   -1.2277853219    4.8353878664
O        0.8187513595   -0.5924102168    4.8733903761
H        0.0425735843   -1.0278828458    4.5047395272
H        3.7890169796   -2.1648167159    2.6249850302
H        3.7533670163   -2.3336548641    0.1534804188
15   

H        1.9219377788   -1.3340213135   -1.1566019362
C        1.9243661492   -1.2606654221   -0.0723756105
C        2.9607295056   -1.8367039334    0.6679874261
C        2.9681458489   -1.7376810976    2.0649199362
C        1.9345394089   -1.0649196063    2.7430545792
C        0.9004761899   -0.4819088575    1.9809993918
C        0.8957036695   -0.5817961855    0.5852603691
H        0.0953547292   -0.1229625663    0.0110232152
H        0.0999148523    0.0731570966    2.4631239467
C        1.9493342915   -0.9460609383    4.2102323805
O        2.9158055587   -1.2749738308    4.8379288803
O        0.8161862423   -0.5120029357    4.8460307092
H        0.0570692655   -1.0667189309    4.6424410287
H        3.7843840471   -2.1830492769    2.6299624053
H        3.7658750546   -2.3586165301    0.1586246605
15   

H        1.9617615853   -1.3217040026   -1.1734338925
C        1.9529352606   -1.2529885202   -0.0889759906
C        2.9806262512   -1.8333912065    0.6601234494
C        2.9728358250   -1.7409107789    2.0576164510
C        1.9330934799   -1.0691254950    2.7274282344
C        0.9074596150   -0.4830480886    1.9565343496
C        0.9175001688   -0.5766958610    0.5604899210
H        0.1224810852   -0.1159848837   -0.0195369327
H        0.0999076608    0.0662459666    2.4337188713
C        1.9291469593   -0.9584922434    4.1957048625
O        2.8728577852   -1.3252648400    4.8365564315
O        0.8133844471   -0.4410311361    4.8144917730
H        0.0849205742   -1.0676986832    4.8165559905
H        3.7821053118   -2.1902742867    2.6293178575
H        3.7905342750   -2.3539914503    0.1571032189
15   

H        2.0129757648   -1.2854269790   -1.1912765246
C        1.9892300463   -1.2278869652   -0.1064305155
C        3.0065236020   -1.8157328095    0.6510519961
C        2.9784744444   -1.7388059457    2.0493185910
C        1.9293151976   -1.0739765731    2.7115776083
C        0.9139882880   -0.4813307188    1.9320928118
C        0.9438541801   -0.5598561794    0.5354641487
H        0.1553156197   -0.0952227842   -0.0501693615
H        0.0964905156    0.0573521441    2.4044668691
C        1.8997871122   -0.9847514010    4.1816005266
O        2.8238530391   -1.3846174627    4.8327035659
O        0.8135777641   -0.3840208727    4.7813433930
H        0.1343895329   -1.0226726858    5.0130015120
H        3.7790714905   -2.1952710204    2.6273940609
H        3.8235354184   -2.3308653757    0.1540240752
15   

H        2.0647836629   -1.2493069951   -1.2060820882
C        2.0247031144   -1.2041222084   -0.1211656273
C        3.0316080145   -1.7984920157    0.6450672825
C        2.9815932055   -1.7385990908    2.0436370193
C        1.9211933495   -1.0832044993    2.6976768248
C        0.9161655898   -0.4848088502    1.9090803291
C        0.9676215004   -0.5467381797    0.5123113989
H        0.1856580292   -0.0787862143   -0.0793963353
H        0.0875669483    0.0419586990    2.3755832086
C        1.8644648008   -1.0160943889    4.1688027370
O        2.7728100942   -1.4446641856    4.8270544181
O        0.8118864082   -0.3497796604    4.7476219735
H        0.2118289264   -0.9483311713    5.2015783603
H        3.7736476535   -2.2014408322    2.6282038835
H        3.8571174269   -2.3062822590    0.1546639647
15   

H        2.1052634587   -1.2295955032   -1.2160879123
C        2.0503768795   -1.1938418343   -0.1314932302
C        3.0483059936   -1.7920709548    0.6434457334
C        2.9785897964   -1.7451098072    2.0417390618
C        1.9078473100   -1.0976092193    2.6870008230
C        0.9116358061   -0.4961651405    1.8893587829
C        0.9823699149   -0.5457371987    0.4930010296
H        0.2061296517   -0.0762796196   -0.1049701440
H        0.0732204885    0.0207878453    2.3493674771
C        1.8283881370   -1.0446122746    4.1582436765
O        2.7179718929   -1.5063816611    4.8231421996
O        0.8069430448   -0.3321011349    4.7179690519
H        0.3143682362   -0.8555188143    5.3592646619
H        3.7634885271   -2.2117517055    2.6327576104
H        3.8818560566   -2.2933174844    0.1600369181
15   

H        2.1390274572   -1.2167552020   -1.2222019001
C        2.0718229899   -1.1865011569   -0.1381492607
C        3.0666925528   -1.7787613556    0.6453426542
C        2.9808458142   -1.7390514002    2.0430347700
C        1.8967616694   -1.1048026957    2.6790722606
C        0.9032864228   -0.5102793661    1.8727708577
C        0.9903261753   -0.5521867779    0.4771434868
H        0.2156918119   -0.0881705945   -0.1271039051
H        0.0535326867   -0.0060159627    2.3261987898
C        1.7990648920   -1.0595077510    4.1496555281
O        2.6824298442   -1.5240885205    4.8235997111
O        0.7732368745   -0.3583201056    4.6950982431
H        0.4261107457   -0.8002211738    5.4800723659
H        3.7631049379   -2.2014986819    2.6407065923
H        3.9101266790   -2.2700881674    0.1690018096
15   

H        2.1592781031   -1.2041121819   -1.2262540802
C        2.0828494303   -1.1794420912   -0.1426800338
C        3.0751459203   -1.7686519845    0.6464108450
C        2.9771764923   -1.7363726912    2.0435265908
C        1.8835038241   -1.1124934059    2.6732660968
C        0.8923263482   -0.5217486490    1.8614180983
C        0.9915082090   -0.5560830962    0.4664117164
H        0.2182374420   -0.0952739527   -0.1420052686
H        0.0343918846   -0.0275137559    2.3106113888
C        1.7732870249   -1.0739648113    4.1431193128
O        2.6438235577   -1.5544947917    4.8245015410
O        0.7398915337   -0.3917709077    4.6809002893
H        0.5372040601   -0.7272520831    5.5655056809
H        3.7571373983   -2.1968514017    2.6456410510
H        3.9257499883   -2.2521436700    0.1748510544
15   

H        2.1786722270   -1.1896113591   -1.2286977622
C        2.0949621922   -1.1697474847   -0.1455682742
C        3.0877469130   -1.7523242116    0.6478983401
C        2.9801560275   -1.7264963261    2.0444657829
C        1.8761292387   -1.1160353973    2.6690274518
C        0.8842149384   -0.5325261564    1.8529537646
C        0.9932223061   -0.5599582705    0.4585531235
H        0.2190749226   -0.1050121885   -0.1531473910
H        0.0176386959   -0.0503304875    2.2987509031
C        1.7556122556   -1.0841983111    4.1380086188
O        2.6168413565   -1.5725990153    4.8267423208
O        0.6983528723   -0.4453050078    4.6712337923
H        0.6316876847   -0.6531752277    5.6154516743
H        3.7599682322   -2.1824043483    2.6502060130
H        3.9458732483   -2.2260873811    0.1801243240
15   

H        2.1947092361   -1.1718835430   -1.2287385235
C        2.1059431291   -1.1574054302   -0.1459280085
C        3.1015682084   -1.7322139898    0.6496834611
C        2.9872629857   -1.7136296069    2.0458506362
C        1.8733528560   -1.1187091811    2.6677265028
C        0.8783352266   -0.5435164899    1.8495569910
C        0.9943545336   -0.5631265574    0.4556079304
H        0.2175711301   -0.1149023093   -0.1577146255
H        0.0034070330   -0.0748169016    2.2934743530
C        1.7453914501   -1.0948628721    4.1361247707
O        2.6008503096   -1.5892390423    4.8282279659
O        0.6573532767   -0.5109993448    4.6661296362
H        0.6999540803   -0.5653297355    5.6333404788
H        3.7687562653   -2.1642674398    2.6533531807
H        3.9667851486   -2.1948490372    0.1838446405
15   

H        2.2011916179   -1.1487980844   -1.2273979824
C        2.1105692917   -1.1414605712   -0.1446675516
C        3.1113663425   -1.7095167504    0.6492617988
C        2.9945196866   -1.7004620858    2.0452948707
C        1.8726138182   -1.1224021046    2.6688242814
C        0.8721019944   -0.5544738513    1.8522540222
C        0.9910003493   -0.5639817118    0.4584243758
H        0.2098504015   -0.1217261924   -0.1536805536
H       -0.0098745183   -0.1001868432    2.2971617700
C        1.7418442730   -1.1091455964    4.1372136933
O        2.5956126918   -1.6110677238    4.8255151724
O        0.6233657383   -0.5811850372    4.6669061589
H        0.7381070498   -0.4603452269    5.6215966941
H        3.7796650631   -2.1467050071    2.6513430702
H        3.9822986037   -2.1600726379    0.1822272507
15   

H        2.2030403402   -1.1248031763   -1.2237268497
C        2.1122295234   -1.1261967621   -0.1409830521
C        3.1185025810   -1.6900766311    0.6489150727
C        3.0013232627   -1.6926100275    2.0449218668
C        1.8734488977   -1.1307132953    2.6726866455
C        0.8670883081   -0.5674851252    1.8599617240
C        0.9865943035   -0.5649876462    0.4661285848
H        0.2008590123   -0.1267681544   -0.1430082705
H       -0.0205536436   -0.1270880662    2.3074396548
C        1.7424952170   -1.1297652323    4.1413428617
O        2.5948125588   -1.6433128635    4.8216728059
O        0.5999815756   -0.6453155250    4.6728259354
H        0.7516274357   -0.3386777537    5.5778857632
H        3.7905182104   -2.1363536600    2.6475696904
H        3.9937542618   -2.1289002659    0.1787784486
15   

H        2.2028209690   -1.1011596455   -1.2185195339
C        2.1121948133   -1.1133473948   -0.1358190992
C        3.1225592186   -1.6775240887    0.6485696141
C        3.0055458499   -1.6942904308    2.0444623730
C        1.8738587197   -1.1463075774    2.6777493509
C        0.8629396646   -0.5833997176    1.8704386777
C        0.9823900269   -0.5665766388    0.4766824381
H        0.1931118494   -0.1291010002   -0.1284120709
H       -0.0289243077   -0.1554485347    2.3214336047
C        1.7438414781   -1.1595802722    4.1464666813
O        2.5896860048   -1.6921495693    4.8182448066
O        0.5891282398   -0.6919400859    4.6844710685
H        0.7563898927   -0.2017431636    5.4991409894
H        3.7977421609   -2.1387264968    2.6427098180
H        4.0007330137   -2.1058957375    0.1742361088
15   

H        2.1954914016   -1.0660795534   -1.2108793111
C        2.1067762380   -1.0916307654   -0.1282375227
C        3.1240581380   -1.6547860196    0.6478196243
C        3.0095088122   -1.6890724894    2.0435247528
C        1.8734830414   -1.1598819978    2.6850168298
C        0.8550112846   -0.5987808891    1.8860887939
C        0.9722579612   -0.5640618705    0.4924161272
H        0.1773475407   -0.1284407923   -0.1066336123
H       -0.0417117670   -0.1874967746    2.3427307257
C        1.7466703787   -1.1927006338    4.1535260743
O        2.5937320746   -1.7315294789    4.8159687824
O        0.5843146081   -0.7355471359    4.7051185344
H        0.7467312763   -0.0720023406    5.3842247046
H        3.8068456313   -2.1331720982    2.6352621432
H        4.0055384241   -2.0691705522    0.1671785471
15   

H        2.1902941996   -1.0218636354   -1.1988346554
C        2.1014985677   -1.0649613384   -0.1167303283
C        3.1205479933   -1.6373189353    0.6502057540
C        3.0055726505   -1.6951489310    2.0450256101
C        1.8681499103   -1.1793404599    2.6946169483
C        0.8473010167   -0.6096202445    1.9051050981
C        0.9647181443   -0.5520130656    0.5121438743
H        0.1678535210   -0.1110684872   -0.0804256334
H       -0.0526599048   -0.2121808166    2.3674869314
C        1.7415377547   -1.2388741136    4.1617086621
O        2.5707483659   -1.8108536126    4.8153960276
O        0.6010843426   -0.7318112742    4.7354542568
H        0.7746778590    0.0717176422    5.2340679807
H        3.8036937082   -2.1469938072    2.6299445038
H        4.0034620774   -2.0410764482    0.1631177504
15   

H        2.1927775248   -0.9595620564   -1.1809001926
C        2.1022559811   -1.0230401770   -0.0999090068
C        3.1215671336   -1.6072303861    0.6576893372
C        3.0039213203   -1.6926798597    2.0507836363
C        1.8643022831   -1.1917902748    2.7078211466
C        0.8425755599   -0.6107418525    1.9279677170
C        0.9624975650   -0.5260583565    0.5365377756
H        0.1647678677   -0.0780813980   -0.0496258598
H       -0.0616906065   -0.2293091427    2.3953336763
C        1.7335388424   -1.2860344471    4.1719997394
O        2.5470548902   -1.8862473052    4.8167177345
O        0.6300298214   -0.7166576198    4.7707461311
H        0.8013009899    0.1859379278    5.0515046476
H        3.8013830398   -2.1548275756    2.6286776939
H        4.0063301063   -1.9995778639    0.1645721437
15   

H        2.1956420098   -0.8978443927   -1.1599352149
C        2.1036461390   -0.9798577319   -0.0802782201
C        3.1224452373   -1.5763751818    0.6683079915
C        3.0024843720   -1.6871821561    2.0593260302
C        1.8618019864   -1.1983314436    2.7233110817
C        0.8398902260   -0.6055084827    1.9526319279
C        0.9619997428   -0.4960527544    0.5630566569
H        0.1639722755   -0.0407939259   -0.0171438768
H       -0.0681722372   -0.2383702318    2.4240141465
C        1.7266404034   -1.3255009760    4.1840133022
O        2.5229630600   -1.9593881536    4.8163580767
O        0.6772146513   -0.6878127990    4.8066287795
H        0.8182109921    0.2612737249    4.8588856084
H        3.7987470911   -2.1601180155    2.6302765783
H        4.0082042616   -1.9595100436    0.1696662429
15   

H        2.1843561518   -0.8584635277   -1.1414535116
C        2.0944506098   -0.9524442671   -0.0625566956
C        3.1144318871   -1.5581696540    0.6768630437
C        2.9970723281   -1.6852778380    2.0665937045
C        1.8586076461   -1.2025530927    2.7386741228
C        0.8345431203   -0.6014242111    1.9771931047
C        0.9540133050   -0.4761468413    0.5886254659
H        0.1545668668   -0.0156797656    0.0144386599
H       -0.0748068433   -0.2435166988    2.4530347387
C        1.7265273604   -1.3498802070    4.1973750642
O        2.5033872645   -2.0224477502    4.8141403649
O        0.7378355067   -0.6540096401    4.8415042669
H        0.8071218129    0.2927487769    4.6857321843
H        3.7938629867   -2.1658898724    2.6305150728
H        3.9989350037   -1.9362613370    0.1720824425
15   

H        2.1525058824   -0.8478261740   -1.1304833104
C        2.0688752583   -0.9467009366   -0.0514859063
C        3.0912478881   -1.5599506592    0.6781795013
C        2.9822624872   -1.6933864041    2.0678379130
C        1.8508048141   -1.2084279552    2.7499604758
C        0.8230942831   -0.6009821987    1.9982723043
C        0.9341309411   -0.4699106697    0.6093903173
H        0.1325756474   -0.0049776190    0.0417202008
H       -0.0836496971   -0.2446407795    2.4799370807
C        1.7320711998   -1.3605416134    4.2090352845
O        2.4827789562   -2.0780719343    4.8083070248
O        0.8064597221   -0.6146808271    4.8726823357
H        0.7703691066    0.2911116053    4.5467541279
H        3.7810222784   -2.1793058320    2.6245266753
H        3.9712754782   -1.9387431236    0.1660626185
15   

H        2.1041168028   -0.8641247914   -1.1264571826
C        2.0305255186   -0.9613546430   -0.0465532278
C        3.0554709587   -1.5820079827    0.6729095461
C        2.9599684480   -1.7126062937    2.0636414322
C        1.8406649279   -1.2163792863    2.7575105308
C        0.8089955705   -0.6027029670    2.0161023358
C        0.9064167650   -0.4751185387    0.6256881848
H        0.1028480205   -0.0051174717    0.0650446084
H       -0.0908963629   -0.2391528082    2.5046775507
C        1.7446223341   -1.3600076061    4.2189671693
O        2.4629092781   -2.1234719283    4.8019672369
O        0.8796570551   -0.5710231832    4.8998162704
H        0.7137027303    0.2641688277    4.4462888539
H        3.7612695547   -2.2028535166    2.6129577644
H        3.9274751476   -1.9679182388    0.1523715696
15   

H        2.0488313306   -0.9000553857   -1.1277423738
C        1.9863984467   -0.9909817002   -0.0465715772
C        3.0105589098   -1.6231325338    0.6636035152
C        2.9300904340   -1.7443940284    2.0559393003
C        1.8280633082   -1.2262367355    2.7613235021
C        0.7959859941   -0.6016561666    2.0292713491
C        0.8779883746   -0.4844468253    0.6367557256
H        0.0752067514   -0.0054007359    0.0826704794
H       -0.0924524411   -0.2200987791    2.5242931881
C        1.7595309640   -1.3521489483    4.2260582469
O        2.4386431647   -2.1607922615    4.7957947108
O        0.9540667574   -0.5217591351    4.9195930511
H        0.6435555903    0.2202057428    4.3848023805
H        3.7317481504   -2.2415313054    2.5985929295
H        3.8709711153   -2.0239114084    0.1350157803
15   

H        1.9917885067   -0.9393021947   -1.1330657855
C        1.9428012444   -1.0198762631   -0.0503771510
C        2.9616804347   -1.6704086601    0.6501063777
C        2.8991499710   -1.7770450897    2.0443366569
C        1.8214266681   -1.2257612940    2.7626949894
C        0.7944285010   -0.5812749329    2.0399385417
C        0.8580529781   -0.4798333226    0.6450009519
H        0.0601651676    0.0153197076    0.0980758935
H       -0.0754993933   -0.1674623554    2.5406482816
C        1.7842871622   -1.3319355372    4.2312349782
O        2.4463606446   -2.1623385220    4.7902618717
O        1.0071228433   -0.4880721497    4.9361936299
H        0.5258446077    0.1308077647    4.3713537733
H        3.6984586554   -2.2865985621    2.5789377831
H        3.8049678422   -2.0955036485    0.1129540337
