15   

H        2.1271729685   -1.0610757757   -1.2209014140
C        1.9701895511   -1.0475292415   -0.1458266687
C        3.0517428435   -1.2090819034    0.7250384927
C        2.8496089340   -1.1921315220    2.1114825651
C        1.5750277870   -1.0076546219    2.6408534493
C        0.4892325318   -0.8565615399    1.7591072335
C        0.6850929151   -0.8725807668    0.3736033697
H       -0.1620506645   -0.7512109910   -0.2955391471
H       -0.5139330340   -0.7261668402    2.1592566033
C        1.3363210858   -1.0078906867    4.1002309048
O        0.2532050539   -1.1124340541    4.6203452440
O        2.4619733900   -0.8943806278    4.8444932696
H        2.1478010236   -0.9106885681    5.7603517051
H        3.7101016902   -1.3264420881    2.7620970229
H        4.0522053879   -1.3500598295    0.3259772327
15   

H        2.1246496163   -1.0335580800   -1.2187924171
C        1.9683909144   -1.0309821526   -0.1435314142
C        3.0460755567   -1.2339523166    0.7240822933
C        2.8439259868   -1.2315912278    2.1105048385
C        1.5758537613   -1.0141836917    2.6412106212
C        0.4920515283   -0.8312664471    1.7648207080
C        0.6874149840   -0.8324168051    0.3789799049
H       -0.1568487124   -0.6835757759   -0.2882392553
H       -0.5072636100   -0.6894662992    2.1703975747
C        1.3412581693   -1.0533494998    4.1018494937
O        0.3073782575   -1.3862224383    4.6242210238
O        2.4261753936   -0.7149011457    4.8376132751
H        2.1290475993   -0.7916249461    5.7560150542
H        3.6941599385   -1.4007060202    2.7666500352
H        4.0421698513   -1.3970807170    0.3225634560
15   

H        2.1177448232   -1.0080965712   -1.2164918064
C        1.9639254611   -1.0165765090   -0.1409094736
C        3.0381741827   -1.2615944906    0.7207678621
C        2.8382729610   -1.2736887314    2.1073345668
C        1.5785464729   -1.0245832249    2.6418253198
C        0.4961199317   -0.8062763309    1.7737746526
C        0.6889191784   -0.7926003483    0.3874307143
H       -0.1526107909   -0.6144356954   -0.2760274852
H       -0.4980997878   -0.6504512956    2.1861060588
C        1.3535898644   -1.0994205047    4.1052576715
O        0.4186272776   -1.6454773707    4.6319184925
O        2.3541348487   -0.5472872445    4.8298453827
H        2.0881529931   -0.6791327064    5.7514259278
H        3.6787888789   -1.4750763905    2.7669378149
H        4.0284917977   -1.4467006361    0.3145360604
15   

H        2.1067604719   -0.9837238686   -1.2155332379
C        1.9581513700   -1.0062205402   -0.1394207281
C        3.0296493762   -1.2973250544    0.7117954440
C        2.8360243652   -1.3272288295    2.0988935466
C        1.5870257975   -1.0499551465    2.6422064415
C        0.5058422074   -0.7862417284    1.7866925625
C        0.6923846913   -0.7543509569    0.3996203878
H       -0.1466320707   -0.5407498780   -0.2565022853
H       -0.4808916285   -0.6098393152    2.2079207614
C        1.3771931461   -1.1498765936    4.1105319093
O        0.5893773061   -1.8830917488    4.6473898020
O        2.2370572646   -0.3838087842    4.8190323891
H        2.0116311050   -0.5557952892    5.7446719900
H        3.6699137089   -1.5622553425    2.7556337979
H        4.0120832022   -1.5040851637    0.2969632754
15   

H        2.0896331312   -0.9507901871   -1.2157595328
C        1.9514577804   -0.9933121575   -0.1388610583
C        3.0217381122   -1.3390445679    0.6934664463
C        2.8415350846   -1.3943120820    2.0815637010
C        1.6068433651   -1.0943036303    2.6431602318
C        0.5275842971   -0.7671065964    1.8080134118
C        0.7008690060   -0.7096704025    0.4199562361
H       -0.1361614235   -0.4497450123   -0.2218162316
H       -0.4463800913   -0.5603673855    2.2442929835
C        1.4183744819   -1.2028470139    4.1181755102
O        0.8236908824   -2.0837035743    4.6786892923
O        2.0538770806   -0.2230797906    4.7977140904
H        1.8716655689   -0.4128260051    5.7292575882
H        3.6732241603   -1.6688435659    2.7254200330
H        3.9926313351   -1.5674538230    0.2631016186
15   

H        2.0780868483   -0.9098248842   -1.2148586144
C        1.9525835075   -0.9734707159   -0.1374505112
C        3.0178275682   -1.3854872072    0.6707002835
C        2.8537545594   -1.4680159714    2.0594546257
C        1.6377601395   -1.1415041076    2.6452017903
C        0.5679591399   -0.7298469190    1.8353318037
C        0.7247766789   -0.6452633081    0.4467129208
H       -0.1065118913   -0.3263710887   -0.1756232531
H       -0.3858865448   -0.4777537246    2.2914383437
C        1.4730089987   -1.2405544486    4.1258747246
O        1.1012532053   -2.2147593928    4.7218263265
O        1.7928659727   -0.0917309354    4.7602209243
H        1.6470278924   -0.2803551654    5.6983165742
H        3.6824125459   -1.7907054462    2.6845548175
H        3.9726394108   -1.6427917421    0.2210765824
15   

H        2.0619299256   -0.8790496934   -1.2142884365
C        1.9514688033   -0.9557139970   -0.1360819122
C        3.0114372083   -1.4250710382    0.6471003740
C        2.8664447572   -1.5247666222    2.0368281587
C        1.6710777304   -1.1693990617    2.6487218174
C        0.6126023076   -0.6836221983    1.8642054472
C        0.7500733103   -0.5820561441    0.4747113996
H       -0.0749031052   -0.2118192123   -0.1272487361
H       -0.3175968970   -0.3865712930    2.3416220451
C        1.5383119488   -1.2544280516    4.1318157707
O        1.4097146879   -2.2666544531    4.7662480239
O        1.5123039770   -0.0369477288    4.7172110517
H        1.4075007773   -0.2213764666    5.6616538232
H        3.6920747768   -1.8895827532    2.6426977545
H        3.9478265307   -1.7126185151    0.1774794328
15   

H        2.0487282215   -0.8846210870   -1.2172488837
C        1.9501732552   -0.9588596019   -0.1377204722
C        3.0022849823   -1.4686812009    0.6303329495
C        2.8726607065   -1.5653425127    2.0217252364
C        1.6979208442   -1.1710126480    2.6518016138
C        0.6503152315   -0.6382453799    1.8810806836
C        0.7728985203   -0.5398082712    0.4900045061
H       -0.0447275691   -0.1354384981   -0.0998981707
H       -0.2602933034   -0.3018334319    2.3702924240
C        1.5964290045   -1.2427548451    4.1339544843
O        1.7085418184   -2.2410864406    4.7950790157
O        1.2701462712   -0.0543664153    4.6902021973
H        1.2141991085   -0.2364220008    5.6393656875
H        3.6927049601   -1.9612304817    2.6159929996
H        3.9210358373   -1.7898442088    0.1478198267
15   

H        2.0333481490   -0.9131398516   -1.2227799785
C        1.9445722841   -0.9746810716   -0.1416053574
C        2.9880040941   -1.5117232707    0.6193108909
C        2.8713850995   -1.5919213787    2.0127836059
C        1.7174240984   -1.1528007744    2.6543384806
C        0.6776825859   -0.5944716255    1.8881687563
C        0.7885130705   -0.5127325255    0.4950170929
H       -0.0224194523   -0.0880489828   -0.0898371347
H       -0.2191295606   -0.2253038580    2.3794633978
C        1.6441545613   -1.2154775829    4.1344176728
O        1.9849076384   -2.1537229375    4.8074671940
O        1.0718776488   -0.1194475617    4.6837197970
H        1.0708041691   -0.2971168630    5.6354738360
H        3.6854929472   -2.0098006898    2.6006347452
H        3.8902878804   -1.8671373924    0.1297716363
15   

H        2.0177213989   -0.9530386968   -1.2296520890
C        1.9381290732   -0.9963333711   -0.1468787671
C        2.9725887947   -1.5530641443    0.6115626601
C        2.8683765349   -1.6096800419    2.0070876944
C        1.7361895746   -1.1234446828    2.6558132027
C        0.7023971236   -0.5507017219    1.8890973159
C        0.8022460793   -0.4928421539    0.4939287411
H       -0.0027080151   -0.0551390640   -0.0896010694
H       -0.1835728198   -0.1515382299    2.3766153662
C        1.6838699788   -1.1792633719    4.1339537702
O        2.2303402313   -2.0124054923    4.8120087637
O        0.9059743040   -0.2185070718    4.6851735276
H        0.9568662127   -0.3830111661    5.6380256923
H        3.6777040901   -2.0441231750    2.5899185164
H        3.8587784297   -1.9425880786    0.1185777437
15   

H        1.9967623963   -0.9985487930   -1.2355066670
C        1.9271955813   -1.0218994084   -0.1514282848
C        2.9532646137   -1.5945606654    0.6058808620
C        2.8626774277   -1.6251127168    2.0031200482
C        1.7537231703   -1.0925346466    2.6572694761
C        0.7245636054   -0.5100195219    1.8889142706
C        0.8119453067   -0.4783031825    0.4920856564
H        0.0122841320   -0.0302801717   -0.0909041108
H       -0.1498625759   -0.0810752644    2.3718313979
C        1.7167859944   -1.1395533839    4.1348693982
O        2.4373567390   -1.8226228019    4.8195694351
O        0.7649318328   -0.3497064759    4.6851519415
H        0.8587984899   -0.4876111255    5.6390226634
H        3.6683853198   -2.0734524018    2.5805920354
H        3.8229864706   -2.0170558727    0.1107122979
15   

H        1.9716837559   -1.0475018926   -1.2388639862
C        1.9132133235   -1.0499015185   -0.1538816100
C        2.9316319493   -1.6363231869    0.6029275424
C        2.8559176633   -1.6392787990    2.0013721641
C        1.7711758701   -1.0614683951    2.6583320889
C        0.7462428222   -0.4710201878    1.8892632762
C        0.8193502273   -0.4666599409    0.4912754867
H        0.0247346658   -0.0093775005   -0.0914311463
H       -0.1134980159   -0.0118416824    2.3706635571
C        1.7452535820   -1.0947464362    4.1362315885
O        2.6010901807   -1.5895811598    4.8276185173
O        0.6531705805   -0.5093031851    4.6816360870
H        0.7779857260   -0.6089903156    5.6367401940
H        3.6566943281   -2.0997823844    2.5761517881
H        3.7841533471   -2.0910886651    0.1064277803
15   

H        1.9428082721   -1.0963257453   -1.2386207434
C        1.8962408440   -1.0779957884   -0.1532147253
C        2.9074102474   -1.6776606638    0.6032335717
C        2.8472829559   -1.6530115717    2.0022310415
C        1.7877701653   -1.0308317694    2.6592356365
C        0.7669194069   -0.4332575861    1.8913605538
C        0.8243409140   -0.4558363250    0.4928024821
H        0.0346411400    0.0102407090   -0.0896115873
H       -0.0752432863    0.0541577568    2.3761404502
C        1.7680236527   -1.0466950957    4.1378279895
O        2.7114770644   -1.3258307833    4.8353945750
O        0.5776511707   -0.6891172863    4.6743415963
H        0.7186266354   -0.7416453475    5.6309317489
H        3.6406252479   -2.1237622699    2.5789886664
H        3.7419411387   -2.1639322435    0.1060330491
15   

H        1.9153640648   -1.1385418200   -1.2355604894
C        1.8803413986   -1.1010625878   -0.1502143903
C        2.8824905256   -1.7163503534    0.6063618013
C        2.8371716160   -1.6662333475    2.0052864486
C        1.8045831785   -0.9994947031    2.6597614547
C        0.7894772412   -0.3928858620    1.8941242993
C        0.8314070851   -0.4399934262    0.4956123514
H        0.0476216907    0.0360740922   -0.0866953894
H       -0.0337942624    0.1199066765    2.3852616881
C        1.7840533419   -0.9976994261    4.1397371598
O        2.7616547916   -1.0494982360    4.8426783265
O        0.5419982342   -0.8781449882    4.6641639196
H        0.6825576234   -0.8801441942    5.6221920489
H        3.6205535686   -2.1476981156    2.5866194715
H        3.6978777928   -2.2341901617    0.1092897454
15   

H        1.8897883255   -1.1733118212   -1.2310667483
C        1.8653333584   -1.1182844809   -0.1461792037
C        2.8555595148   -1.7517523995    0.6116652828
C        2.8236111673   -1.6785019759    2.0100256110
C        1.8194261163   -0.9679417384    2.6602269800
C        0.8133158539   -0.3486617643    1.8959989540
C        0.8408642465   -0.4178543907    0.4980398253
H        0.0649305582    0.0702584568   -0.0847936763
H        0.0095143012    0.1890698052    2.3926629382
C        1.7934632355   -0.9448832003    4.1430370010
O        2.7502839752   -0.7666230362    4.8516483970
O        0.5468184263   -1.0710176474    4.6534116960
H        0.6708095373   -1.0220314124    5.6123850209
H        3.5954065169   -2.1730652008    2.5954338586
H        3.6506068236   -2.3015120167    0.1159354648
15   

H        1.8737393480   -1.2017561588   -1.2273502252
C        1.8548440442   -1.1316265316   -0.1432234649
C        2.8264986549   -1.7872613981    0.6201856201
C        2.8015836751   -1.6941567534    2.0176222523
C        1.8244835839   -0.9416422295    2.6591073548
C        0.8359083585   -0.3018935651    1.8917938880
C        0.8555568498   -0.3900063674    0.4947758089
H        0.0933597268    0.1148179355   -0.0919272413
H        0.0524910408    0.2650285227    2.3883477001
C        1.7910699962   -0.8900048866    4.1451899715
O        2.6770102737   -0.4859195492    4.8509845332
O        0.5974169936   -1.2735610457    4.6513679981
H        0.6959064171   -1.1757286514    5.6094464446
H        3.5577835158   -2.2057506423    2.6082046173
H        3.6011895516   -2.3695059228    0.1293566756
15   

H        1.8759944344   -1.2160234569   -1.2250216056
C        1.8528326278   -1.1344742265   -0.1417757243
C        2.7940656581   -1.8190165949    0.6345525935
C        2.7635605273   -1.7112254378    2.0308891714
C        1.8088804705   -0.9196584023    2.6566764989
C        0.8545997360   -0.2450484310    1.8781747154
C        0.8795041900   -0.3474879819    0.4821827533
H        0.1425636271    0.1822972727   -0.1146955152
H        0.0943204572    0.3599502627    2.3653999327
C        1.7699864762   -0.8345619914    4.1451889787
O        2.5399579867   -0.2183024690    4.8314923067
O        0.7111707755   -1.4888493989    4.6709643086
H        0.7857256778   -1.3482249532    5.6257607028
H        3.4961620614   -2.2446380355    2.6313887136
H        3.5494041756   -2.4346844294    0.1544805273
15   

H        1.9106464360   -1.2132797354   -1.2245240964
C        1.8684753883   -1.1259017950   -0.1423056333
C        2.7633788825   -1.8466282304    0.6560121870
C        2.7082077333   -1.7317931572    2.0510529156
C        1.7676188039   -0.9061614372    2.6526979286
C        0.8706339161   -0.1813078021    1.8528038342
C        0.9201930698   -0.2911094392    0.4579934470
H        0.2238367469    0.2723219618   -0.1565536836
H        0.1363160001    0.4686378212    2.3215827114
C        1.7235761227   -0.7864501195    4.1403386036
O        2.3327034541    0.0170083868    4.7929140153
O        0.9060189148   -1.6989712275    4.7090252473
H        0.9623963359   -1.5211177773    5.6587941836
H        3.4062956930   -2.2911159239    2.6686159094
H        3.5024427982   -2.4949347770    0.1939343784
15   

H        1.9514607555   -1.2012024879   -1.2237354285
C        1.8846854179   -1.1143255254   -0.1427153913
C        2.7255928529   -1.8757526212    0.6763715780
C        2.6387882206   -1.7617532588    2.0698602660
C        1.7112776663   -0.9050374246    2.6491887030
C        0.8813240122   -0.1260217613    1.8284331192
C        0.9626029298   -0.2353286296    0.4350649068
H        0.3135530371    0.3652757341   -0.1958563931
H        0.1751447314    0.5660271065    2.2801706333
C        1.6627576143   -0.7599503163    4.1322825295
O        2.0749834754    0.1840236460    4.7509227253
O        1.1553081897   -1.8515639024    4.7458417526
H        1.1934032329   -1.6420464204    5.6901029163
H        3.2972787820   -2.3501738860    2.7037187518
H        3.4482923732   -2.5539656640    0.2316797824
15   

H        1.9884319999   -1.1981720131   -1.2223635669
C        1.8991828615   -1.1130901285   -0.1428245201
C        2.6940528195   -1.9055304297    0.6924233142
C        2.5786730363   -1.7936296870    2.0840381168
C        1.6632396550   -0.9118325715    2.6466059170
C        0.8864721916   -0.0964227300    1.8086645327
C        0.9963926144   -0.2033948267    0.4171693637
H        0.3858286550    0.4242335617   -0.2257659126
H        0.1995296652    0.6232944784    2.2471981882
C        1.5962129775   -0.7529458054    4.1231748595
O        1.7812220763    0.2768979128    4.7161909590
O        1.3883419967   -1.9219436965    4.7700386271
H        1.3885260692   -1.6850552214    5.7087019303
H        3.2045959937   -2.4055556324    2.7287735265
H        3.4041910009   -2.6057745174    0.2618728853
15   

H        2.0149218117   -1.1944440529   -1.2224271057
C        1.9110581166   -1.1123889654   -0.1439610853
C        2.6681556254   -1.9321833271    0.6994086786
C        2.5343863698   -1.8244260447    2.0897928548
C        1.6372779206   -0.9181442789    2.6452156359
C        0.8985684954   -0.0769153769    1.7970061506
C        1.0272052906   -0.1795215566    0.4069584321
H        0.4454534919    0.4694417189   -0.2415040791
H        0.2252660814    0.6605112827    2.2278625752
C        1.5411089085   -0.7595789055    4.1160822823
O        1.4896697931    0.2955813614    4.6937461185
O        1.5887126820   -1.9344696692    4.7856600263
H        1.5334345753   -1.6844551600    5.7194037553
H        3.1353319469   -2.4599894093    2.7355668615
H        3.3639639693   -2.6510314750    0.2761763152
15   

H        2.0401907502   -1.1866233174   -1.2236677081
C        1.9256882988   -1.1083723963   -0.1459963190
C        2.6489149734   -1.9537305789    0.7011561851
C        2.5017305012   -1.8517560583    2.0907516065
C        1.6270662862   -0.9213713044    2.6441669162
C        0.9177632174   -0.0597451516    1.7893951488
C        1.0602877462   -0.1566556875    0.4005042079
H        0.5019667317    0.5104023539   -0.2502088377
H        0.2537796318    0.6897796985    2.2143291702
C        1.4956755607   -0.7734985858    4.1107632085
O        1.2113619973    0.2520745689    4.6764041840
O        1.7686316848   -1.9065752963    4.7996559114
H        1.6502249821   -1.6594014061    5.7283744995
H        3.0806732183   -2.5125349194    2.7312363704
H        3.3291001877   -2.6893840837    0.2814013836
15   

H        2.0648551236   -1.1740142473   -1.2244986231
C        1.9406971277   -1.1009780825   -0.1475290215
C        2.6308888855   -1.9717995233    0.7007446903
C        2.4713793375   -1.8776009104    2.0896492677
C        1.6211153547   -0.9241296484    2.6435138879
C        0.9377950577   -0.0436267767    1.7850007197
C        1.0931448946   -0.1330634323    0.3971583749
H        0.5565614242    0.5511377853   -0.2540569842
H        0.2815445115    0.7154855266    2.2051758953
C        1.4546566499   -0.7934309211    4.1070616868
O        0.9511186087    0.1524007142    4.6606327138
O        1.9392669167   -1.8416882514    4.8143194873
H        1.7607630129   -1.6121233097    5.7380094749
H        3.0265235991   -2.5652979917    2.7226373066
H        3.2946142216   -2.7230496817    0.2822451793
15   

H        2.0869133899   -1.1573567744   -1.2238971940
C        1.9531978399   -1.0915837298   -0.1476030364
C        2.6109762929   -1.9883130947    0.6991181623
C        2.4389648236   -1.9040534453    2.0872114912
C        1.6135344168   -0.9298471498    2.6431869150
C        0.9544077568   -0.0303193489    1.7846256703
C        1.1225171748   -0.1098426513    0.3977283269
H        0.6071070982    0.5915444094   -0.2523109452
H        0.3061436842    0.7364525414    2.2033545115
C        1.4158270656   -0.8205743991    4.1043664813
O        0.7150869652    0.0001981621    4.6434598662
O        2.0995468700   -1.7382239188    4.8286323124
H        1.8698879403   -1.5386220220    5.7479960466
H        2.9660070488   -2.6178585286    2.7151962488
H        3.2580459169   -2.7535749414    0.2799109513
