15   

H        2.1271730178   -1.0610753298   -1.2209014123
C        1.9701895836   -1.0475288806   -0.1458266673
C        3.0517428501   -1.2090817237    0.7250384914
C        2.8496089340   -1.1921315220    2.1114825651
C        1.5750277870   -1.0076546219    2.6408534493
C        0.4892325535   -0.8565613692    1.7591072389
C        0.6850929486   -0.8725804239    0.3736033757
H       -0.1620506278   -0.7512105890   -0.2955391337
H       -0.5139330246   -0.7261667910    2.1592566112
C        1.3363210858   -1.0078906867    4.1002309048
O        0.2532050539   -1.1124340541    4.6203452440
O        2.4619738116   -0.8943853823    4.8444933746
H        2.1477988873   -0.9106655302    5.7603514238
H        3.7101017132   -1.3264424144    2.7620969307
H        4.0522053823   -1.3500597457    0.3259772391
15   

H        2.1246498357   -1.0335572101   -1.2187924114
C        1.9683910652   -1.0309814233   -0.1435314175
C        3.0460756251   -1.2339519548    0.7240823033
C        2.8439259868   -1.2315912278    2.1105048385
C        1.5758537613   -1.0141836917    2.6412106212
C        0.4920515755   -0.8312661657    1.7648206786
C        0.6874151143   -0.8324161424    0.3789798808
H       -0.1568485385   -0.6835750194   -0.2882393183
H       -0.5072636355   -0.6894662991    2.1703974548
C        1.3412581693   -1.0533494998    4.1018494937
O        0.3073782575   -1.3862224383    4.6242210238
O        2.4261774209   -0.7149075914    4.8376133525
H        2.1290272799   -0.7915566535    5.7560141279
H        3.6941598733   -1.4007068244    2.7666499544
H        4.0421699052   -1.3970805969    0.3225635214
15   

H        2.1177453878   -1.0080954280   -1.2164917905
C        1.9639258489   -1.0165756036   -0.1409094849
C        3.0381744144   -1.2615939839    0.7207679146
C        2.8382729610   -1.2736887314    2.1073345668
C        1.5785464729   -1.0245832249    2.6418253198
C        0.4961200124   -0.8062762164    1.7737745228
C        0.6889194742   -0.7925997232    0.3874306052
H       -0.1526104073   -0.6144351087   -0.2760277157
H       -0.4980999011   -0.6504517641    2.1861056363
C        1.3535898644   -1.0994205047    4.1052576715
O        0.4186272776   -1.6454773707    4.6319184925
O        2.3541385944   -0.5472935288    4.8298452285
H        2.0880909685   -0.6790160460    5.7514243401
H        3.6787885445   -1.4750772977    2.7669380750
H        4.0284920712   -1.4467003306    0.3145363046
15   

H        2.1067610081   -0.9837243078   -1.2155333025
C        1.9581517206   -1.0062208026   -0.1394208179
C        3.0296496368   -1.2973250830    0.7117955113
C        2.8360243652   -1.3272288295    2.0988935466
C        1.5870257975   -1.0499551465    2.6422064415
C        0.5058421852   -0.7862423669    1.7866922876
C        0.6923848861   -0.7543516190    0.3996201195
H       -0.1466318332   -0.5407511342   -0.2565027994
H       -0.4808919845   -0.6098407617    2.2079199622
C        1.3771931461   -1.1498765936    4.1105319093
O        0.5893773061   -1.8830917488    4.6473898020
O        2.2370626146   -0.3838142612    4.8190321029
H        2.0115229214   -0.5556684936    5.7446685777
H        3.6699132717   -1.5622555006    2.7556344541
H        4.0120835862   -1.5040852720    0.2969636755
15   

H        2.0896334074   -0.9507912459   -1.2157596652
C        1.9514579265   -0.9933129585   -0.1388611974
C        3.0217382655   -1.3390448658    0.6934664770
C        2.8415350846   -1.3943120820    2.0815637010
C        1.6068433651   -1.0943036303    2.6431602318
C        0.5275841617   -0.7671075138    1.8080131228
C        0.7008689931   -0.7096715879    0.4199559336
H       -0.1361614633   -0.4497468624   -0.2218167683
H       -0.4463805619   -0.5603689771    2.2442921861
C        1.4183744819   -1.2028470139    4.1181755102
O        0.8236908824   -2.0837035743    4.6786892923
O        2.0538825687   -0.2230832678    4.7977141287
H        1.8715631412   -0.4127545742    5.7292517522
H        3.6732239363   -1.6688431180    2.7254206239
H        3.9926316431   -1.5674540079    0.2631019404
15   

H        2.0780868609   -0.9098248594   -1.2148586168
C        1.9525835166   -0.9734707107   -0.1374505158
C        3.0178275714   -1.3854872122    0.6707002822
C        2.8537545594   -1.4680159714    2.0594546257
C        1.6377601395   -1.1415041076    2.6452017903
C        0.5679591343   -0.7298469465    1.8353317909
C        0.7247766823   -0.6452633160    0.4467129091
H       -0.1065118783   -0.3263710893   -0.1756232745
H       -0.3858865661   -0.4777537722    2.2914383084
C        1.4730089987   -1.2405544486    4.1258747246
O        1.1012532053   -2.2147593928    4.7218263265
O        1.7928668566   -0.0917312235    4.7602209978
H        1.6470277100   -0.2803551021    5.6983165516
H        3.6824125433   -1.7907054349    2.6845548277
H        3.9726394123   -1.6427917547    0.2210765825
15   

H        2.0619298887   -0.8790480607   -1.2142881784
C        1.9514688602   -0.9557127340   -0.1360816699
C        3.0114371617   -1.4250704781    0.6471003869
C        2.8664447572   -1.5247666222    2.0368281587
C        1.6710777304   -1.1693990617    2.6487218174
C        0.6126025322   -0.6836213077    1.8642058207
C        0.7500735115   -0.5820546708    0.4747118281
H       -0.0749028454   -0.2118171248   -0.1272480116
H       -0.3175963096   -0.3865701706    2.3416231213
C        1.5383119488   -1.2544280516    4.1318157707
O        1.4097146879   -2.2666544531    4.7662480239
O        1.5122988479   -0.0369473895    4.7172102833
H        1.4076200948   -0.2213792197    5.6616662382
H        3.6920746984   -1.8895835861    2.6426973029
H        3.9478262836   -1.7126181651    0.1774791700
15   

H        2.0487278161   -0.8846201384   -1.2172486714
C        1.9501730410   -0.9588588611   -0.1377202571
C        3.0022848373   -1.4686807556    0.6303329422
C        2.8726607065   -1.5653425127    2.0217252364
C        1.6979208442   -1.1710126480    2.6518016138
C        0.6503151230   -0.6382452942    1.8810810233
C        0.7728982978   -0.5398077532    0.4900048910
H       -0.0447280059   -0.1354379830   -0.0998974912
H       -0.2602933033   -0.3018338900    2.3702935431
C        1.5964290045   -1.2427548451    4.1339544843
O        1.7085418184   -2.2410864406    4.7950790157
O        1.2701396803   -0.0543675434    4.6902010929
H        1.2143563814   -0.2363848796    5.6393815297
H        3.6927048991   -1.9612312075    2.6159925458
H        3.9210354985   -1.7898438474    0.1478195082
15   

H        2.0333477546   -0.9131398058   -1.2227799190
C        1.9445720350   -0.9746810331   -0.1416052871
C        2.9880039981   -1.5117231077    0.6193108777
C        2.8713850995   -1.5919213787    2.0127836059
C        1.7174240984   -1.1528007744    2.6543384806
C        0.6776821972   -0.5944722943    1.8881688507
C        0.7885126222   -0.5127330136    0.4950172057
H       -0.0224202671   -0.0880500067   -0.0898369029
H       -0.2191302812   -0.2253056339    2.3794638732
C        1.6441545613   -1.2154775829    4.1344176728
O        1.9849076384   -2.1537229375    4.8074671940
O        1.0718720980   -0.1194498902    4.6837189643
H        1.0709317782   -0.2970546685    5.6354851556
H        3.6854929121   -2.0098010713    2.6006344893
H        3.8902876962   -1.8671372228    0.1297714560
15   

H        2.0177212465   -0.9530388999   -1.2296521015
C        1.9381289723   -0.9963335230   -0.1468787738
C        2.9725888090   -1.5530640878    0.6115626598
C        2.8683765349   -1.6096800419    2.0070876944
C        1.7361895746   -1.1234446828    2.6558132027
C        0.7023967799   -0.5507023964    1.8890972702
C        0.8022457545   -0.4928427731    0.4939287026
H       -0.0027086399   -0.0551402218   -0.0896010993
H       -0.1835736044   -0.1515398466    2.3766153690
C        1.6838699788   -1.1792633719    4.1339537702
O        2.2303402313   -2.0124054923    4.8120087637
O        0.9059703727   -0.2185099098    4.6851730786
H        0.9569409559   -0.3829532978    5.6380315030
H        3.6777040509   -2.0441233536    2.5899184236
H        3.8587784455   -1.9425879725    0.1185777104
15   

H        1.9967623283   -0.9985488831   -1.2355066792
C        1.9271955366   -1.0218994762   -0.1514282950
C        2.9532646179   -1.5945606395    0.6058808596
C        2.8626774277   -1.6251127168    2.0031200482
C        1.7537231703   -1.0925346466    2.6572694761
C        0.7245634206   -0.5100198690    1.8889142410
C        0.8119451417   -0.4783034887    0.4920856324
H        0.0122838129   -0.0302807535   -0.0909041350
H       -0.1498630238   -0.0810760953    2.3718313391
C        1.7167859944   -1.1395533839    4.1348693982
O        2.4373567390   -1.8226228019    4.8195694351
O        0.7649298149   -0.3497087713    4.6851517806
H        0.8588264404   -0.4875786044    5.6390245814
H        3.6683852918   -2.0734524803    2.5805920104
H        3.8229864743   -2.0170558305    0.1107122834
15   

H        1.9716837730   -1.0475019066   -1.2388639897
C        1.9132133372   -1.0499015272   -0.1538816128
C        2.9316319643   -1.6363231892    0.6029275447
C        2.8559176633   -1.6392787990    2.0013721641
C        1.7711758701   -1.0614683951    2.6583320889
C        0.7462428257   -0.4710201871    1.8892632733
C        0.8193502363   -0.4666599490    0.4912754818
H        0.0247346754   -0.0093775073   -0.0914311506
H       -0.1134980110   -0.0118416758    2.3706635539
C        1.7452535820   -1.0947464362    4.1362315885
O        2.6010901807   -1.5895811598    4.8276185173
O        0.6531705601   -0.5093032115    4.6816360805
H        0.7779856825   -0.6089903471    5.6367401901
H        3.6566943238   -2.0997823813    2.5761517966
H        3.7841533700   -2.0910886729    0.1064277980
15   

H        1.9428083085   -1.0963256436   -1.2386207391
C        1.8962408709   -1.0779957219   -0.1532147218
C        2.9074102204   -1.6776606967    0.6032335708
C        2.8472829559   -1.6530115717    2.0022310415
C        1.7877701653   -1.0308317694    2.6592356365
C        0.7669195894   -0.4332572621    1.8913605545
C        0.8243410737   -0.4558360337    0.4928024885
H        0.0346414429    0.0102412686   -0.0896115597
H       -0.0752428411    0.0541585459    2.3761404592
C        1.7680236527   -1.0466950957    4.1378279895
O        2.7114770644   -1.3258307833    4.8353945750
O        0.5776520588   -0.6891142917    4.6743416058
H        0.7186140437   -0.7416862698    5.6309313275
H        3.6406253004   -2.1237621989    2.5789886491
H        3.7419411008   -2.1639322903    0.1060330417
15   

H        1.9153641229   -1.1385414781   -1.2355604796
C        1.8803414594   -1.1010623511   -0.1502143763
C        2.8824904650   -1.7163503538    0.6063617955
C        2.8371716160   -1.6662333475    2.0052864486
C        1.8045831785   -0.9994947031    2.6597614547
C        0.7894776429   -0.3928851683    1.8941243175
C        0.8314074398   -0.4399927431    0.4956123795
H        0.0476223518    0.0360753573   -0.0866952965
H       -0.0337932766    0.1199082597    2.3852618294
C        1.7840533419   -0.9976994261    4.1397371598
O        2.7616547916   -1.0494982360    4.8426783265
O        0.5419985526   -0.8781401172    4.6641637190
H        0.6825484454   -0.8802384348    5.6221930129
H        3.6205537029   -2.1476980028    2.5866193697
H        3.6978776893   -2.2341901826    0.1092896952
15   

H        1.8897881629   -1.1733113921   -1.2310666808
C        1.8653332447   -1.1182842134   -0.1461791267
C        2.8555593528   -1.7517523668    0.6116652642
C        2.8236111673   -1.6785019759    2.0100256110
C        1.8194261163   -0.9679417384    2.6602269800
C        0.8133162185   -0.3486610693    1.8959990907
C        0.8408644565   -0.4178536944    0.4980399721
H        0.0649310324    0.0702597627   -0.0847933745
H        0.0095153998    0.1890713310    2.3926635188
C        1.7934632355   -0.9448832003    4.1430370010
O        2.7502839752   -0.7666230362    4.8516483970
O        0.5468174589   -1.0710117081    4.6534111276
H        0.6708247517   -1.0221729954    5.6123898533
H        3.5954068192   -2.1730649725    2.5954336194
H        3.6506066217   -2.3015118957    0.1159352842
15   

H        1.8737385265   -1.2017561004   -1.2273500649
C        1.8548434456   -1.1316265846   -0.1432232942
C        2.8264982747   -1.7872614370    0.6201855936
C        2.8015836751   -1.6941567534    2.0176222523
C        1.8244835839   -0.9416422295    2.6591073548
C        0.8359083067   -0.3018934277    1.8917942111
C        0.8555564408   -0.3900062813    0.4947761534
H        0.0933592576    0.1148182778   -0.0919266004
H        0.0524915189    0.2650288622    2.3883488229
C        1.7910699962   -0.8900048866    4.1451899715
O        2.6770102737   -0.4859195492    4.8509845332
O        0.5974144738   -1.2735548602    4.6513671271
H        0.6959585684   -1.1758822529    5.6094562223
H        3.5577840707   -2.2057502302    2.6082042088
H        3.6011891603   -2.3695057349    0.1293563624
15   

H        1.8759931063   -1.2160242336   -1.2250214340
C        1.8528316454   -1.1344748932   -0.1417755533
C        2.7940651677   -1.8190168493    0.6345525807
C        2.7635605273   -1.7112254378    2.0308891714
C        1.8088804705   -0.9196584023    2.6566764989
C        0.8545991520   -0.2450490430    1.8781750235
C        0.8795031385   -0.3474888442    0.4821830856
H        0.1425621370    0.1822960874   -0.1146949312
H        0.0943198757    0.3599492252    2.3654009051
C        1.7699864762   -0.8345619914    4.1451889787
O        2.5399579867   -0.2183024690    4.8314923067
O        0.7111677527   -1.4888451783    4.6709636582
H        0.7857912866   -1.3483248964    5.6257700122
H        3.4961627096   -2.2446375384    2.6313883068
H        3.5494037271   -2.4346844306    0.1544802564
15   

H        1.9106468032   -1.2132793152   -1.2245241117
C        1.8684756445   -1.1259014988   -0.1423056436
C        2.7633789992   -1.8466280992    0.6560121824
C        2.7082077333   -1.7317931572    2.0510529156
C        1.7676188039   -0.9061614372    2.6526979286
C        0.8706340615   -0.1813076354    1.8528038254
C        0.9201933381   -0.2911091254    0.4579934309
H        0.2238371358    0.2723224162   -0.1565537078
H        0.1363161757    0.4686380239    2.3215826969
C        1.7235761227   -0.7864501195    4.1403386036
O        2.3327034541    0.0170083868    4.7929140153
O        0.9060196399   -1.6989718410    4.7090253064
H        0.9623961861   -1.5211176822    5.6587941580
H        3.4062956024   -2.2911160216    2.6686159242
H        3.5024429062   -2.4949346593    0.1939343779
15   

H        1.9514620431   -1.2012018658   -1.2237355142
C        1.8846863548   -1.1143250129   -0.1427154929
C        2.7255932588   -1.8757525105    0.6763716161
C        2.6387882206   -1.7617532588    2.0698602660
C        1.7112776663   -0.9050374246    2.6491887030
C        0.8813248353   -0.1260210263    1.8284328812
C        0.9626041371   -0.2353277469    0.4350646654
H        0.3135548925    0.3652771085   -0.1958568303
H        0.1751459907    0.5660285411    2.2801699245
C        1.6627576143   -0.7599503163    4.1322825295
O        2.0749834754    0.1840236460    4.7509227253
O        1.1553141761   -1.8515667476    4.7458418135
H        1.1932885389   -1.6419976340    5.6900963637
H        3.2972782051   -2.3501740339    2.7037193261
H        3.4482927421   -2.5539657653    0.2316800849
15   

H        1.9884325154   -1.1981723237   -1.2223636274
C        1.8991831771   -1.1130903518   -0.1428246030
C        2.6940529355   -1.9055306684    0.6924233713
C        2.5786730363   -1.7936296870    2.0840381168
C        1.6632396550   -0.9118325715    2.6466059170
C        0.8864726792   -0.0964223970    1.8086643021
C        0.9963931812   -0.2033947026    0.4171691336
H        0.3858297025    0.4242339496   -0.2257663391
H        0.1995306830    0.6232955478    2.2471975099
C        1.5962129775   -0.7529458054    4.1231748595
O        1.7812220763    0.2768979128    4.7161909590
O        1.3883494817   -1.9219452895    4.7700384642
H        1.3883612316   -1.6850310532    5.7086952486
H        3.2045959254   -2.4055551700    2.7287741922
H        3.4041912359   -2.6057748405    0.2618732716
15   

H        2.0149209889   -1.1944451797   -1.2224271558
C        1.9110574457   -1.1123898042   -0.1439611437
C        2.6681552638   -1.9321837959    0.6994086918
C        2.5343863698   -1.8244260447    2.0897928548
C        1.6372779206   -0.9181442789    2.6452156359
C        0.8985683746   -0.0769155428    1.7970060399
C        1.0272047964   -0.1795221922    0.4069583161
H        0.4454530199    0.4694410065   -0.2415042900
H        0.2252663423    0.6605115807    2.2278622262
C        1.5411089085   -0.7595789055    4.1160822823
O        1.4896697931    0.2955813614    4.6937461185
O        1.5887199468   -1.9344694864    4.7856600718
H        1.5333028288   -1.6844647101    5.7193981361
H        3.1353325570   -2.4599886416    2.7355671621
H        3.3639637847   -2.6510318700    0.2761764983
15   

H        2.0401900088   -1.1866240258   -1.2236677500
C        1.9256876907   -1.1083729465   -0.1459963578
C        2.6489146605   -1.9537308493    0.7011561708
C        2.5017305012   -1.8517560583    2.0907516065
C        1.6270662862   -0.9213713044    2.6441669162
C        0.9177629934   -0.0597453444    1.7893951173
C        1.0602872132   -0.1566561675    0.4005041614
H        0.5019661364    0.5104017898   -0.2502089159
H        0.2537796149    0.6897797207    2.2143290695
C        1.4956755607   -0.7734985858    4.1107632085
O        1.2113619973    0.2520745689    4.6764041840
O        1.7686382745   -1.9065735665    4.7996562533
H        1.6501565631   -1.6594204751    5.7283707982
H        3.0806738628   -2.5125344369    2.7312363286
H        3.3291000403   -2.6893842291    0.2814014183
15   

H        2.0648544521   -1.1740147701   -1.2244986626
C        1.9406966100   -1.1009784834   -0.1475290516
C        2.6308886482   -1.9717996935    0.7007446699
C        2.4713793375   -1.8776009104    2.0896492677
C        1.6211153547   -0.9241296484    2.6435138879
C        0.9377947778   -0.0436269991    1.7850007095
C        1.0931443566   -0.1330638561    0.3971583492
H        0.5565607140    0.5511372157   -0.2540570229
H        0.2815442702    0.7154853367    2.2051758849
C        1.4546566499   -0.7934309211    4.1070616868
O        0.9511186087    0.1524007142    4.6606327138
O        1.9392711437   -1.8416860957    4.8143198113
H        1.7607423710   -1.6121337865    5.7380081302
H        3.0265239774   -2.5652977649    2.7226372271
H        3.2946140858   -2.7230497614    0.2822451534
15   

H        2.0869133496   -1.1573567705   -1.2238971948
C        1.9531978132   -1.0915837231   -0.1476030363
C        2.6109762708   -1.9883130927    0.6991181577
C        2.4389648236   -1.9040534453    2.0872114912
C        1.6135344168   -0.9298471498    2.6431869150
C        0.9544077550   -0.0303193422    1.7846256761
C        1.1225171613   -0.1098426383    0.3977283321
H        0.6071070886    0.5915444233   -0.2523109434
H        0.3061436891    0.7364525518    2.2033545197
C        1.4158270656   -0.8205743991    4.1043664813
O        0.7150869652    0.0001981621    4.6434598662
O        2.0995468214   -1.7382239561    4.8286323103
H        1.8698878423   -1.5386220941    5.7479960392
H        2.9660070566   -2.6178585330    2.7151962374
H        3.2580458846   -2.7535749443    0.2799109395
