15   

H        1.8844833324   -1.1974157688   -1.1372587486
C        1.8989255798   -1.1491112692   -0.0516465486
C        2.9606297658   -1.7132822119    0.6606466871
C        2.9827070886   -1.6488163768    2.0589071959
C        1.9376999483   -1.0273830494    2.7676383445
C        0.8787641570   -0.4514146096    2.0340865564
C        0.8609356651   -0.5150123007    0.6358009550
H        0.0425687000   -0.0641656366    0.0808537664
H        0.0688489965    0.0724064958    2.5336904769
C        1.9680897212   -0.9741908872    4.2380961931
O        2.9986689886   -1.1458832446    4.8281131912
O        0.8177008376   -0.7689023661    4.9117254249
H        0.0392105000   -0.8750360873    4.3499263529
H        3.8160618733   -2.0885566027    2.6033539176
H        3.7727303696   -2.2015725466    0.1292303292
15   

H        1.8836706941   -1.2630053894   -1.1392463455
C        1.8975116166   -1.2018995342   -0.0542871891
C        2.9496599317   -1.7733334616    0.6666811483
C        2.9716330577   -1.6911816958    2.0642062571
C        1.9362431247   -1.0429563165    2.7629974886
C        0.8870028848   -0.4610399920    2.0206419622
C        0.8685928759   -0.5432252270    0.6235267221
H        0.0576304412   -0.0865623449    0.0625067922
H        0.0863567038    0.0823181116    2.5150173291
C        1.9669692172   -0.9570638609    4.2318026208
O        2.9798986341   -1.1865614993    4.8318058916
O        0.8201798788   -0.6788194542    4.8963881059
H        0.0378185925   -0.9607088413    4.4072844056
H        3.7987822105   -2.1346457571    2.6149680984
H        3.7551656523   -2.2797025782    0.1422489762
15   

H        1.8958440662   -1.3125203065   -1.1453667523
C        1.9057369536   -1.2419880189   -0.0609623039
C        2.9499755240   -1.8156694882    0.6699182354
C        2.9671753056   -1.7205289644    2.0668732041
C        1.9351386717   -1.0554450922    2.7547957037
C        0.8935576779   -0.4730753239    2.0023553567
C        0.8794302077   -0.5687294029    0.6062336217
H        0.0740186924   -0.1107392821    0.0383780833
H        0.0955340084    0.0802614595    2.4903521913
C        1.9609908645   -0.9456829309    4.2222495775
O        2.9519525252   -1.2278115673    4.8353835352
O        0.8187592339   -0.5923984266    4.8733959186
H        0.0425716754   -1.0278574338    4.5047499681
H        3.7891105268   -2.1644916659    2.6248670983
H        3.7535221675   -2.3330280289    0.1533437144
15   

H        1.9219806382   -1.3339169345   -1.1566102688
C        1.9244038002   -1.2605785880   -0.0723827437
C        2.9607594236   -1.8366359868    0.6679763147
C        2.9681671911   -1.7376387874    2.0649106286
C        1.9345601462   -1.0648841468    2.7430511955
C        0.9005057932   -0.4818523935    1.9809999981
C        0.8957415199   -0.5817146431    0.5852590661
H        0.0953977303   -0.1228679668    0.0110252022
H        0.0999422520    0.0732058451    2.4631296202
C        1.9493363838   -0.9460740059    4.2102333606
O        2.9157964688   -1.2750075839    4.8379326195
O        0.8161977537   -0.5119863117    4.8460295134
H        0.0570666120   -1.0666835643    4.6424416260
H        3.7843970197   -2.1830256419    2.6299504718
H        3.7659042436   -2.3585456890    0.1586094179
15   

H        1.9614569513   -1.3224497876   -1.1733830175
C        1.9526669942   -1.2536341813   -0.0889311548
C        2.9803759711   -1.8339784303    0.6601893105
C        2.9726451076   -1.7413482252    2.0576731944
C        1.9329464181   -1.0694651394    2.7274545317
C        0.9072866704   -0.4834605299    1.9565384016
C        0.9172669577   -0.5772596045    0.5605043023
H        0.1222392998   -0.1165848460   -0.0195398056
H        0.0997794818    0.0659266367    2.4336916839
C        1.9291472176   -0.9585095122    4.1957072780
O        2.8728462897   -1.3253088097    4.8365547622
O        0.8133990387   -0.4410092316    4.8144934309
H        0.0849154923   -1.0676539482    4.8165609711
H        3.7819467501   -2.1906372830    2.6293875039
H        3.7902625578   -2.3546323189    0.1571902308
15   

H        2.0124573762   -1.2864764995   -1.1912250197
C        1.9887775993   -1.2287953159   -0.1063850393
C        3.0061117132   -1.8165508667    0.6511134367
C        2.9781663662   -1.7394112244    2.0493707497
C        1.9290741013   -1.0744510311    2.7116040666
C        0.9136941573   -0.4819168525    1.9321024040
C        0.9434555387   -0.5606565485    0.5354840605
H        0.1548936822   -0.0960797806   -0.0501632341
H        0.0962637693    0.0568924543    2.4044490652
C        1.8997871848   -0.9847667810    4.1816034081
O        2.8238412094   -1.3846559978    4.8327016725
O        0.8135931305   -0.3839986397    4.7813436128
H        0.1343853978   -1.0226276622    5.0130069205
H        3.7788212105   -2.1957633117    2.6274553889
H        3.8230901480   -2.3317530311    0.1541028608
15   

H        2.0645099614   -1.2497978292   -1.2060670426
C        2.0244648811   -1.2045500500   -0.1211518803
C        3.0313888581   -1.7988850534    0.6450829921
C        2.9814287197   -1.7388962495    2.0436506424
C        1.9210670715   -1.0834359853    2.6976863948
C        0.9160140597   -0.4850853337    1.9090875363
C        0.9674145585   -0.5471118800    0.5123209632
H        0.1854401307   -0.0791807905   -0.0793888722
H        0.0874519582    0.0417448778    2.3755845068
C        1.8644636305   -1.0161122555    4.1688072952
O        2.7727895320   -1.4447172497    4.8270557774
O        0.8119089140   -0.3497498152    4.7476210989
H        0.2118246188   -0.9482730340    5.2015791505
H        3.7735106582   -2.2016902279    2.6282181147
H        3.8568782339   -2.3067103203    0.1546822119
15   

H        2.1054545726   -1.2293275888   -1.2160851349
C        2.0505409116   -1.1936128389   -0.1314905463
C        3.0484461620   -1.7918768293    0.6434522145
C        2.9786896187   -1.7449747664    2.0417456561
C        1.9079297013   -1.0974991903    2.6870041966
C        0.9117459525   -0.4960142727    1.8893577313
C        0.9825200179   -0.5455279576    0.4930000338
H        0.2062954790   -0.0760475039   -0.1049735999
H        0.0733124147    0.0209120064    2.3493631365
C        1.8283876185   -1.0446254665    4.1582480503
O        2.7179557128   -1.5064188120    4.8231435473
O        0.8069598146   -0.3320784798    4.7179659736
H        0.3143662119   -0.8554760994    5.3592634566
H        3.7635629198   -2.2116559979    2.6327668036
H        3.8820048330   -2.2931117411    0.1600462671
15   

H        2.1395039073   -1.2160599652   -1.2221905125
C        2.0722332833   -1.1859013061   -0.1381393351
C        3.0670512577   -1.7782359604    0.6453618494
C        2.9811056401   -1.7386717304    2.0430523011
C        1.8969709212   -1.1044981293    2.6790794850
C        0.9035570493   -0.5098848212    1.8727678627
C        0.9906955037   -0.5516469160    0.4771425478
H        0.2160945717   -0.0875831170   -0.1271111562
H        0.0537530163   -0.0056978238    2.3261864351
C        1.7990665535   -1.0595178949    4.1496603314
O        2.6824184080   -1.5241133775    4.8236025509
O        0.7732467616   -0.3583028982    4.6950932323
H        0.4261062690   -0.8001900064    5.4800685747
H        3.7633068587   -2.2012084353    2.6407304938
H        3.9105113293   -2.2695261149    0.1690292767
15   

H        2.1597667207   -1.2034027233   -1.2262338329
C        2.0832699081   -1.1788298524   -0.1426623971
C        3.0755122037   -1.7681174950    0.6464386802
C        2.9774411405   -1.7359869890    2.0435510417
C        1.8837177738   -1.1121825388    2.6732773945
C        0.8926044608   -0.5213439575    1.8614183584
C        0.9918876668   -0.5555301974    0.4664158395
H        0.2186522559   -0.0946712058   -0.1420083695
H        0.0346195201   -0.0271857093    2.3105995281
C        1.7732893668   -1.0739759448    4.1431246634
O        2.6438080444   -1.5545251973    4.8245058725
O        0.7399032048   -0.3917489861    4.6808940055
H        0.5371981302   -0.7272174910    5.5654997440
H        3.7573418030   -2.1965584687    2.6456723771
H        3.9261422048   -2.2515731937    0.1748889154
15   

H        2.1789650883   -1.1891814852   -1.2286799356
C        2.0952144626   -1.1693765195   -0.1455525110
C        3.0879669286   -1.7520001839    0.6479200506
C        2.9803155110   -1.7262624364    2.0444846931
C        1.8762584965   -1.1158470933    2.6690378867
C        0.8843823352   -0.5322810995    1.8529576787
C        0.9934501068   -0.5596234011    0.4585601858
H        0.2193237885   -0.1046472224   -0.1531446415
H        0.0177758926   -0.0501318931    2.2987463243
C        1.7556163487   -1.0842057432    4.1380139996
O        2.6168335977   -1.5726145196    4.8267461092
O        0.6983563091   -0.4452919620    4.6712270085
H        0.6316778721   -0.6531536498    5.6154453424
H        3.7600918900   -2.1822265550    2.6502287077
H        3.9461087587   -2.2257414337    0.1801523444
15   

H        2.1947374449   -1.1718994269   -1.2287321729
C        2.1059673733   -1.1574191171   -0.1459220118
C        3.1015892386   -1.7322260981    0.6496946676
C        2.9872788034   -1.7136388034    2.0458615290
C        1.8733663950   -1.1187169003    2.6677320637
C        0.8783521041   -0.5435258652    1.8495567155
C        0.9943766552   -0.5631388708    0.4556082712
H        0.2175955271   -0.1149157602   -0.1577180372
H        0.0034217942   -0.0748249050    2.2934684236
C        1.7453979085   -1.0948666235    4.1361303246
O        2.6008502046   -1.5892391563    4.8282333557
O        0.6573499088   -0.5109972470    4.6661220628
H        0.6999389110   -0.5653211222    5.6333332705
H        3.7687697206   -2.1642754710    2.6533679102
H        3.9668077839   -2.1948622034    0.1838599323
15   

H        2.2009837408   -1.1492754487   -1.2274090655
C        2.1103896621   -1.1418721594   -0.1446767224
C        3.1112089482   -1.7098765861    0.6492616802
C        2.9944063341   -1.7007226380    2.0452979913
C        1.8725232471   -1.1226122142    2.6688220400
C        0.8719840533   -0.5547458721    1.8522415115
C        0.9908385593   -0.5643527577    0.4584089924
H        0.2096745842   -0.1221306794   -0.1537022354
H       -0.0099689546   -0.1004080157    2.2971438897
C        1.7418525834   -1.1091454935    4.1372193448
O        2.5956212908   -1.6110535645    4.8255198551
O        0.6233568342   -0.5811941972    4.6668987331
H        0.7380839982   -0.4603478616    5.6215896631
H        3.7795798598   -2.1469057772    2.6513536261
H        3.9821306658   -2.1604577146    0.1822319016
15   

H        2.2027008669   -1.1255944679   -1.2237543228
C        2.1119359087   -1.1268787350   -0.1410065576
C        3.1182453131   -1.6906723231    0.6489069642
C        3.0011375879   -1.6930406443    2.0449203702
C        1.8732999414   -1.1310603351    2.6726770607
C        0.8668947452   -0.5679353972    1.8599348551
C        0.9863294629   -0.5656024838    0.4660956194
H        0.2005712390   -0.1274387314   -0.1430517948
H       -0.0207089116   -0.1274540899    2.3074057966
C        1.7425057022   -1.1297618481    4.1413487381
O        2.5948292523   -1.6432847721    4.8216789977
O        0.5999696414   -0.6453359559    4.6728183693
H        0.7515957899   -0.3386902404    5.5778783972
H        3.7903784783   -2.1366846418    2.6475811802
H        3.9934800300   -2.1295376999    0.1787778696
15   

H        2.2024872206   -1.1019336056   -1.2185548167
C        2.1119064522   -1.1140145265   -0.1358494024
C        3.1223058959   -1.6781086375    0.6485536239
C        3.0053630065   -1.6947136918    2.0444544985
C        1.8737127912   -1.1466473247    2.6777361838
C        0.8627508248   -0.5838385157    1.8704092236
C        0.9821309438   -0.5671763986    0.4766452887
H        0.1928306135   -0.1297538998   -0.1284587617
H       -0.0290750554   -0.1558034669    2.3213998351
C        1.7438508674   -1.1595768666    4.1464720475
O        2.5897002815   -1.6921276373    4.8182492012
O        0.5891191364   -0.6919566598    4.6844649821
H        0.7563617458   -0.2017551547    5.4991357891
H        3.7976037421   -2.1390536988    2.6427142506
H        4.0004622220   -2.1065223512    0.1742259082
15   

H        2.1953671525   -1.0663841278   -1.2108945804
C        2.1066704006   -1.0918918017   -0.1282502645
C        3.1239688333   -1.6550086724    0.6478130563
C        3.0094478473   -1.6892296754    2.0435222598
C        1.8734340551   -1.1600108600    2.6850127736
C        0.8549428197   -0.5989545560    1.8860775292
C        0.9721615275   -0.5643003377    0.4924010100
H        0.1772402969   -0.1287044863   -0.1066527384
H       -0.0417672787   -0.1876405679    2.3427178975
C        1.7466811696   -1.1926938506    4.1535312613
O        2.5937540428   -1.7314971790    4.8159724646
O        0.5843044840   -0.7355723178    4.7051138892
H        0.7466948565   -0.0720224771    5.3842213722
H        3.8068041863   -2.1332870953    2.6352648914
H        4.0054437994   -2.0694068645    0.1671740655
15   

H        2.1905567500   -1.0213709192   -1.1987888198
C        2.1017287524   -1.0645315540   -0.1166896392
C        3.1207628183   -1.6369183898    0.6502450149
C        3.0057383247   -1.6948445520    2.0450568815
C        1.8682790390   -1.1791082189    2.6946414712
C        0.8474507131   -0.6093483285    1.9051312123
C        0.9649179968   -0.5516431468    0.5121783380
H        0.1680623339   -0.1106821484   -0.0803910643
H       -0.0525446357   -0.2119765130    2.3675040498
C        1.7415560525   -1.2388603941    4.1617148102
O        2.5707986420   -1.8107868799    4.8154003260
O        0.6010662935   -0.7318610651    4.7354519092
H        0.7746081666    0.0716806668    5.2340629708
H        3.8038369075   -2.1467337498    2.6299722482
H        4.0036968014   -2.0406368830    0.1631607294
15   

H        2.1933882830   -0.9585704966   -1.1807828626
C        2.1027824047   -1.0221789593   -0.0998063741
C        3.1220379250   -1.6064526410    0.6578028240
C        3.0042674235   -1.6921023461    2.0508746653
C        1.8645743233   -1.1913369609    2.7078779146
C        0.8429146642   -0.6101831383    1.9280140823
C        0.9629621538   -0.5252981809    0.5366077361
H        0.1652686246   -0.0772704815   -0.0495665713
H       -0.0614216744   -0.2288727822    2.3953443184
C        1.7335516212   -1.2860274488    4.1720040923
O        2.5470794022   -1.8862187993    4.8167186007
O        0.6300193536   -0.7166803774    4.7707449260
H        0.8012632659    0.1859191574    5.0515072455
H        3.8016638121   -2.1543597829    2.6287711273
H        4.0068414167   -1.9987362036    0.1647075635
15   

H        2.1961107767   -0.8971944066   -1.1598391131
C        2.1040493076   -0.9792914411   -0.0801940543
C        3.1228073880   -1.5758567202    0.6684102982
C        3.0027512408   -1.6867932349    2.0594102788
C        1.8620102626   -1.1980293319    2.7233584746
C        0.8401474712   -0.6051442036    1.9526608352
C        0.9623531283   -0.4955576488    0.5631049416
H        0.1643526352   -0.0402710985   -0.0171111804
H       -0.0679690438   -0.2380913404    2.4240056387
C        1.7266546409   -1.3254933139    4.1840171593
O        2.5229916889   -1.9593575847    4.8163591587
O        0.6772039887   -0.6878346228    4.8066287560
H        0.8181736138    0.2612559474    4.8588873728
H        3.7989673487   -2.1597968746    2.6303695812
H        4.0085997941   -1.9589463608    0.1697932504
15   

H        2.1842950078   -0.8585581018   -1.1414674149
C        2.0944006687   -0.9525248780   -0.0625684493
C        3.1143931161   -1.5582336612    0.6768494075
C        2.9970495362   -1.6853206172    2.0665833242
C        1.8585898694   -1.2025913272    2.7386689824
C        0.8345129797   -0.6014812067    1.9771896994
C        0.9539674656   -0.4762245214    0.5886187768
H        0.1545132229   -0.0157687839    0.0144337751
H       -0.0748320138   -0.2435674781    2.4530360107
C        1.7265393064   -1.3498761132    4.1973771368
O        2.5034087052   -2.0224237029    4.8141474954
O        0.7378277358   -0.6540267079    4.8415011394
H        0.8070926336    0.2927333846    4.6857291610
H        3.7938509709   -2.1659155891    2.6305040022
H        3.9988937387   -1.9363264972    0.1720652939
15   

H        2.1519543607   -0.8483784821   -1.1305806506
C        2.0684097428   -0.9471813189   -0.0515699978
C        3.0908434157   -1.5603785498    0.6780528584
C        2.9819792086   -1.6937015876    2.0677306371
C        1.8505862773   -1.2086801403    2.7499166772
C        0.8228065916   -0.6012995608    1.9982719501
C        0.9337218091   -0.4703409827    0.6093684703
H        0.1321242422   -0.0054398291    0.0417322899
H       -0.0838799570   -0.2448917186    2.4799951176
C        1.7320799397   -1.3605367496    4.2090372779
O        2.4827995999   -2.0780554326    4.8083043997
O        0.8064534336   -0.6146942322    4.8726871738
H        0.7703461006    0.2910990003    4.5467632775
H        3.7808008336   -2.1795521818    2.6243910192
H        3.9708325210   -1.9392011718    0.1658918501
15   

H        2.1034344119   -0.8647264322   -1.1265600776
C        2.0299500474   -0.9618794483   -0.0466419305
C        3.0549704644   -1.5824768209    0.6727607235
C        2.9596178637   -1.7129535061    2.0635129824
C        1.8403950751   -1.2166579063    2.7574644983
C        0.8086410167   -0.6030518236    2.0161180748
C        0.9059119839   -0.4755893855    0.6256807151
H        0.1022909447   -0.0056220512    0.0650842955
H       -0.0911805391   -0.2394288992    2.5047681288
C        1.7446312744   -1.3600023303    4.2189677666
O        2.4629322401   -2.1234549509    4.8019628397
O        0.8796504269   -0.5710367319    4.8998210819
H        0.7136785513    0.2641547569    4.4462994831
H        3.7609941897   -2.2031253604    2.6127872690
H        3.9269260606   -1.9684192274    0.1521647647
15   

H        2.0483747544   -0.9004076850   -1.1277963580
C        1.9860141445   -0.9912899261   -0.0466176806
C        3.0102263182   -1.6234055999    0.6635129605
C        2.9298587899   -1.7445965416    2.0558597560
C        1.8278847570   -1.2264022562    2.7613007164
C        0.7957493228   -0.6018656407    2.0292943520
C        0.8776506245   -0.4847270228    0.6367657711
H        0.0748326032   -0.0057025650    0.0827148819
H       -0.0926435639   -0.2202682045    2.5243667276
C        1.7595380070   -1.3521456080    4.2260588572
O        2.4386596347   -2.1607815522    4.7957903969
O        0.9540626887   -0.5217672158    4.9195987469
H        0.6435407285    0.2201966115    4.3848134531
H        3.7315676739   -2.2416869644    2.5984810466
H        3.8706064565   -2.0242004424    0.1348848351
15   

H        1.9917912904   -0.9392917447   -1.1330658771
C        1.9428054376   -1.0198663115   -0.0503772158
C        2.9616868195   -1.6703967548    0.6501048754
C        2.8991579527   -1.7770342876    2.0443351256
C        1.8214338546   -1.2257538993    2.7626950477
C        0.7944338611   -0.5812688481    2.0399399594
C        0.8580568248   -0.4798260270    0.6450023711
H        0.0601674210    0.0153256397    0.0980784055
H       -0.0754945284   -0.1674584245    2.5406505271
C        1.7842938436   -1.3319329438    4.2312348889
O        2.4463763271   -2.1623277464    4.7902588936
O        1.0071194014   -0.4880788124    4.9361972834
H        0.5258321485    0.1307977126    4.3713620098
H        3.6984681551   -2.2865868414    2.5789348501
H        3.8049745302   -2.0954897327    0.1129514222
