15   

H        1.8845500860   -1.1969430233   -1.1372783988
C        1.8989896201   -1.1487041023   -0.0516632448
C        2.9606941547   -1.7129156085    0.6605965695
C        2.9827614121   -1.6485462803    2.0588609749
C        1.9377439747   -1.0271728745    2.7676298678
C        0.8788115879   -0.4511548739    2.0341132462
C        0.8609933982   -0.5146554883    0.6358223308
H        0.0426239039   -0.0637821420    0.0809007957
H        0.0688827141    0.0726117379    2.5337519700
C        1.9680883683   -0.9741836753    4.2380957310
O        2.9986688411   -1.1458666493    4.8281181973
O        0.8176975165   -0.7689074310    4.9117198680
H        0.0392111191   -0.8750488027    4.3499162352
H        3.8161070063   -2.0883348172    2.6032830193
H        3.7727971420   -2.2011723494    0.1291527516
15   

H        1.8838575660   -1.2620478781   -1.1393029530
C        1.8976849780   -1.2010761009   -0.0543360835
C        2.9498305116   -1.7725909252    0.6665708179
C        2.9717723109   -1.6906361088    2.0641067075
C        1.9363535708   -1.0425349035    2.7629711113
C        0.8871238591   -0.4605203526    2.0206801186
C        0.8687458407   -0.5425070558    0.6235513369
H        0.0577802462   -0.0857916966    0.0625791715
H        0.0864423589    0.0827229300    2.5151240920
C        1.9669687079   -0.9570535557    4.2318023284
O        2.9799005709   -1.1865343014    4.8318113293
O        0.8201727735   -0.6788308861    4.8963827097
H        0.0378198781   -0.9607343381    4.4072733019
H        3.7988991747   -2.1341970460    2.6148244573
H        3.7553462892   -2.2788899271    0.1420859727
15   

H        1.8962132357   -1.3110823913   -1.1454713716
C        1.9060713074   -1.2407518411   -0.0610535142
C        2.9502955251   -1.8145571067    0.6697486047
C        2.9674283233   -1.7197137464    2.0667229680
C        1.9353379942   -1.0548150661    2.7547447272
C        0.8937838744   -0.4722953870    2.0023865371
C        0.8797242951   -0.5676500985    0.6062416966
H        0.0743149459   -0.1095803828    0.0384479565
H        0.0956978172    0.0808676284    2.4904776122
C        1.9609905227   -0.9456727612    4.2222483695
O        2.9519553600   -1.2277853219    4.8353878664
O        0.8187513595   -0.5924102168    4.8733903761
H        0.0425735843   -1.0278828458    4.5047395272
H        3.7893206795   -2.1638247488    2.6246624942
H        3.7538639971   -2.3318117566    0.1531034685
15   

H        1.9225824973   -1.3320179988   -1.1567541866
C        1.9249407213   -1.2589448760   -0.0725086375
C        2.9612628106   -1.8351689546    0.6677657421
C        2.9685564135   -1.7365641383    2.0647266261
C        1.9348661289   -1.0640504364    2.7429804010
C        0.9008632907   -0.4808168702    1.9810175628
C        0.8962143096   -0.5802840357    0.5852458308
H        0.0958837459   -0.1213307412    0.0110795104
H        0.1002072135    0.0740126911    2.4632557606
C        1.9493342915   -0.9460609383    4.2102323805
O        2.9158055587   -1.2749738308    4.8379288803
O        0.8161862423   -0.5120029357    4.8460307092
H        0.0570692655   -1.0667189309    4.6424410287
H        3.7847167847   -2.1821511264    2.6297094645
H        3.7664441912   -2.3569451179    0.1583192648
15   

H        1.9623593840   -1.3202246478   -1.1735337573
C        1.9534612995   -1.2517158584   -0.0890633927
C        2.9811056426   -1.8322582794    0.6599907007
C        2.9731975136   -1.7400856982    2.0575024359
C        1.9333810989   -1.0684794235    2.7273796000
C        0.9078096463   -0.4822335598    1.9565327844
C        0.9179683594   -0.5755722413    0.5604672847
H        0.1229745682   -0.1147715612   -0.0195225095
H        0.1001780878    0.0668875739    2.4337809275
C        1.9291469593   -0.9584922434    4.1957048625
O        2.8728577852   -1.3252648400    4.8365564315
O        0.8133844471   -0.4410311361    4.8144917730
H        0.0849205742   -1.0676986832    4.8165559905
H        3.7823954992   -2.1896152734    2.6291746380
H        3.7910477346   -2.3527620322    0.1569251982
15   

H        2.0135778605   -1.2842100482   -1.1913346650
C        1.9897551272   -1.2268379656   -0.1064814839
C        3.0069954687   -1.8148008075    0.6509811602
C        2.9788251701   -1.7381262518    2.0492587837
C        1.9295942712   -1.0734407451    2.7115496296
C        0.9143350383   -0.4806531487    1.9320852850
C        0.9443223644   -0.5589255695    0.5354444643
H        0.1558153542   -0.0942174288   -0.0501719553
H        0.0967632593    0.0578889422    2.4044913927
C        1.8997871122   -0.9847514010    4.1816005266
O        2.8238530391   -1.3846174627    4.8327035659
O        0.8135777641   -0.3840208727    4.7813433930
H        0.1343895329   -1.0226726858    5.0130015120
H        3.7793507418   -2.1947319586    2.6273221166
H        3.8240419579   -2.3298577992    0.1539318370
15   

H        2.0656463570   -1.2478163306   -1.2061178972
C        2.0254508534   -1.2028348679   -0.1211972827
C        3.0322737092   -1.7973495433    0.6450307554
C        2.9820828169   -1.7377645815    2.0436072759
C        1.9215828958   -1.0825430999    2.6976598255
C        0.9166564819   -0.4839710464    1.9090680436
C        0.9682887879   -0.5455918245    0.5122918059
H        0.1863761859   -0.0775477632   -0.0794101290
H        0.0879574624    0.0426252972    2.3755856721
C        1.8644648008   -1.0160943889    4.1688027370
O        2.7728100942   -1.4446641856    4.8270544181
O        0.8118864082   -0.3497796604    4.7476219735
H        0.2118289264   -0.9483311713    5.2015783603
H        3.7740356610   -2.2007825920    2.6281719703
H        3.8578333554   -2.3050509520    0.1546200981
15   

H        2.1064430781   -1.2277832690   -1.2160938482
C        2.0513951788   -1.1922741877   -0.1314993650
C        3.0492075118   -1.7906794004    0.6434540857
C        2.9792482811   -1.7440913450    2.0417481558
C        1.9083706790   -1.0967995987    2.6869972783
C        0.9123010560   -0.4951398484    1.8893397553
C        0.9832785318   -0.5443382689    0.4929814838
H        0.2071124327   -0.0747694182   -0.1049985288
H        0.0737531299    0.0216049329    2.3493406205
C        1.8283881370   -1.0446122746    4.1582436765
O        2.7179718929   -1.5063816611    4.8231421996
O        0.8069430448   -0.3321011349    4.7179690519
H        0.3143682362   -0.8555188143    5.3592646619
H        3.7640092127   -2.2109503959    2.6327777365
H        3.8828272051   -2.2918206837    0.1600564736
15   

H        2.1402169973   -1.2149185298   -1.2221844734
C        2.0728491615   -1.1849118121   -0.1381351461
C        3.0675983373   -1.7773533363    0.6453726425
C        2.9815060066   -1.7380212166    2.0430607790
C        1.8972876975   -1.1039809178    2.6790793682
C        0.9039580510   -0.5092357018    1.8727610318
C        0.9912436443   -0.5507649474    0.4771381326
H        0.2166862699   -0.0866339890   -0.1271197930
H        0.0540727128   -0.0051806983    2.3261740262
C        1.7990648920   -1.0595077510    4.1496555281
O        2.6824298442   -1.5240885205    4.8235997111
O        0.7732368745   -0.3583201056    4.6950982431
H        0.4261107457   -0.8002211738    5.4800723659
H        3.7636247501   -2.2006913098    2.6407434523
H        3.9111014251   -2.2685762078    0.1690469746
15   

H        2.1602149302   -1.2026490084   -1.2262248959
C        2.0836573127   -1.1781757354   -0.1426555174
C        3.0758581476   -1.7675309895    0.6464472356
C        2.9776950016   -1.7355525636    2.0435566521
C        1.8839172945   -1.1118383196    2.6732783736
C        0.8928553265   -0.5209156286    1.8614180042
C        0.9922310428   -0.5549490069    0.4664183916
H        0.2190217029   -0.0940477673   -0.1420069256
H        0.0348179469   -0.0268458776    2.3105964302
C        1.7732870249   -1.0739648113    4.1431193128
O        2.6438235577   -1.5544947917    4.8245015410
O        0.7398915337   -0.3917709077    4.6809002893
H        0.5372040601   -0.7272520831    5.5655056809
H        3.7575446340   -2.1962094526    2.6456786681
H        3.9265161452   -2.2509407043    0.1749008762
15   

H        2.1791629485   -1.1887960866   -1.2286759100
C        2.0953857707   -1.1690421781   -0.1455496115
C        3.0881203740   -1.7517007830    0.6479196423
C        2.9804281359   -1.7260406762    2.0444824827
C        1.8763466144   -1.1156710203    2.6690369290
C        0.8844930060   -0.5320617812    1.8529607115
C        0.9936017618   -0.5593260549    0.4585648272
H        0.2194865082   -0.1043279346   -0.1531376544
H        0.0178627756   -0.0499573075    2.2987515487
C        1.7556122556   -1.0841983111    4.1380086188
O        2.6168413565   -1.5725990153    4.8267423208
O        0.6983528723   -0.4453050078    4.6712337923
H        0.6316876847   -0.6531752277    5.6154516743
H        3.7601813070   -2.1820481994    2.6502237231
H        3.9462744779   -2.2254185912    0.1801506876
15   

H        2.1947092388   -1.1718836889   -1.2287385015
C        2.1059431307   -1.1574055549   -0.1459279887
C        3.1015681980   -1.7322141144    0.6496834918
C        2.9872629745   -1.7136296944    2.0458506633
C        1.8733528514   -1.1187092342    2.6677265114
C        0.8783352322   -0.5435165503    1.8495569904
C        0.9943545423   -0.5631266553    0.4556079344
H        0.2175711448   -0.1149024155   -0.1577146317
H        0.0034070460   -0.0748169371    2.2934743388
C        1.7453914501   -1.0948628721    4.1361247707
O        2.6008503096   -1.5892390423    4.8282279659
O        0.6573532767   -0.5109993448    4.6661296362
H        0.6999540803   -0.5653297355    5.6333404788
H        3.7687562489   -2.1642675241    2.6533532151
H        3.9667851295   -2.1948491922    0.1838446845
15   

H        2.2007634733   -1.1496480114   -1.2274291814
C        2.1101984191   -1.1421950076   -0.1446947555
C        3.1110378305   -1.7101654688    0.6492425755
C        2.9942791047   -1.7009355502    2.0452819720
C        1.8724214735   -1.1227802224    2.6688101063
C        0.8718576160   -0.5549562597    1.8522308093
C        0.9906680092   -0.5646394426    0.4583949873
H        0.2094913028   -0.1224385965   -0.1537153010
H       -0.0100703615   -0.1005746498    2.2971381788
C        1.7418442730   -1.1091455964    4.1372136933
O        2.5956126918   -1.6110677238    4.8255151724
O        0.6233657383   -0.5811850372    4.6669061589
H        0.7381070498   -0.4603452269    5.6215966941
H        3.7794770411   -2.1470757646    2.6513376082
H        3.9819463454   -2.1607693565    0.1822101130
15   

H        2.2023025119   -1.1263749021   -1.2237943279
C        2.1115894053   -1.1275545559   -0.1410421130
C        3.1179340402   -1.6912767165    0.6488775355
C        3.0009058709   -1.6934859865    2.0448979079
C        1.8731153980   -1.1314118992    2.6726558082
C        0.8666663030   -0.5683755177    1.8599067474
C        0.9860210494   -0.5662024033    0.4660604551
H        0.2002408768   -0.1280834889   -0.1430908743
H       -0.0208905966   -0.1278029536    2.3073806699
C        1.7424952170   -1.1297652323    4.1413428617
O        2.5948125588   -1.6433128635    4.8216728059
O        0.5999815756   -0.6453155250    4.6728259354
H        0.7516274357   -0.3386777537    5.5778857632
H        3.7901919147   -2.1370410595    2.6475649608
H        3.9931448773   -2.1301901380    0.1787488756
15   

H        2.2019018824   -1.1031433363   -1.2186238634
C        2.1113978606   -1.1150612289   -0.1359102546
C        3.1218509204   -1.6790405643    0.6485062955
C        3.0050261955   -1.6953980539    2.0444201519
C        1.8734443102   -1.1471898439    2.6777021610
C        0.8624157736   -0.5845222151    1.8703599314
C        0.9816773331   -0.5681083942    0.4765830688
H        0.1923434579   -0.1307583120   -0.1285295389
H       -0.0293417515   -0.1563480988    2.3213537500
C        1.7438414781   -1.1595802722    4.1464666813
O        2.5896860048   -1.6921495693    4.8182448066
O        0.5891282398   -0.6919400859    4.6844710685
H        0.7563898927   -0.2017431636    5.4991409894
H        3.7973356794   -2.1395975339    2.6426930092
H        3.9999731278   -2.1075266585    0.1741809155
15   

H        2.1945887514   -1.0680399374   -1.2110054471
C        2.1059943322   -1.0933247845   -0.1283475754
C        3.1233625229   -1.6562882345    0.6477356838
C        3.0089989646   -1.6901709691    2.0434663076
C        1.8730779115   -1.1607548269    2.6849596872
C        0.8544998204   -0.5998877507    1.8860019353
C        0.9715604513   -0.5655730304    0.4923039666
H        0.1765956764   -0.1300734831   -0.1067619450
H       -0.0421178375   -0.1883806183    2.3426498481
C        1.7466703787   -1.1927006338    4.1535260743
O        2.5937320746   -1.7315294789    4.8159687824
O        0.5843146081   -0.7355471359    4.7051185344
H        0.7467312763   -0.0720023406    5.3842247046
H        3.8064456417   -2.1340389962    2.6352289517
H        4.0047907429   -2.0707879570    0.1670987024
15   

H        2.1894950940   -1.0233844130   -1.1989664241
C        2.1008099461   -1.0662769392   -0.1168449297
C        3.1199382388   -1.6384878278    0.6500955393
C        3.0051291659   -1.6960053995    2.0449419520
C        1.8677990518   -1.1800208595    2.6945571926
C        0.8468549405   -0.6104804485    1.9050387343
C        0.9641054761   -0.5531862310    0.5120503990
H        0.1671899479   -0.1123339653   -0.0805191574
H       -0.0530151893   -0.2128658014    2.3674463796
C        1.7415377547   -1.2388741136    4.1617086621
O        2.5707483659   -1.8108536126    4.8153960276
O        0.6010843426   -0.7318112742    4.7354542568
H        0.7746778590    0.0717176422    5.2340679807
H        3.8033451058   -2.1476704496    2.6298700112
H        4.0028042125   -2.0423347199    0.1629944951
15   

H        2.1920719055   -0.9607162705   -1.1810338504
C        2.1016509496   -1.0240401742   -0.1000252327
C        3.1210330387   -1.6081221985    0.6575605471
C        3.0035354849   -1.6933354033    2.0506814268
C        1.8639989928   -1.1923100621    2.7077595447
C        0.8421880873   -0.6113952792    1.9279176758
C        0.9619614087   -0.5269486390    0.5364599682
H        0.1641849760   -0.0790389653   -0.0496912168
H       -0.0619994284   -0.2298265760    2.3953244138
C        1.7335388424   -1.2860344471    4.1719997394
O        2.5470548902   -1.8862473052    4.8167177345
O        0.6300298214   -0.7166576198    4.7707461311
H        0.8013009899    0.1859379278    5.0515046476
H        3.8010781981   -2.1553473234    2.6285722420
H        4.0057511996   -2.0005382964    0.1644174775
15   

H        2.1947132684   -0.8991315073   -1.1601231629
C        2.1028534672   -0.9809749128   -0.0804417153
C        3.1217469461   -1.5773765379    0.6681072681
C        3.0019829692   -1.6879212536    2.0591621908
C        1.8614106525   -1.1989158337    2.7232232641
C        0.8393885909   -0.6062373892    1.9525812320
C        0.9613004856   -0.4970448460    0.5629666712
H        0.1632097475   -0.0418568002   -0.0172019021
H       -0.0685718632   -0.2389429065    2.4240375574
C        1.7266404034   -1.3255009760    4.1840133022
O        2.5229630600   -1.9593881536    4.8163580767
O        0.6772146513   -0.6878127990    4.8066287795
H        0.8182109921    0.2612737249    4.8588856084
H        3.7983486602   -2.1607070086    2.6300935820
H        4.0074437751   -1.9605893600    0.1694146772
15   

H        2.1830110537   -0.8600668711   -1.1417205899
C        2.0933065411   -0.9538388224   -0.0627889015
C        3.1134249578   -1.5594263942    0.6765525114
C        2.9963524393   -1.6862098140    2.0663351933
C        1.8580492989   -1.2032880748    2.7385488668
C        0.8338262342   -0.6023331697    1.9771475301
C        0.9530081216   -0.4773821530    0.5885234156
H        0.1534685029   -0.0169976249    0.0144009708
H       -0.0753774991   -0.2442252559    2.4531166705
C        1.7265273604   -1.3498802070    4.1973750642
O        2.5033872645   -2.0224477502    4.8141403649
O        0.7378355067   -0.6540096401    4.8415042669
H        0.8071218129    0.2927487769    4.6857321843
H        3.7932880736   -2.1666368239    2.6302098192
H        3.9978340955   -1.9376169570    0.1716807388
15   

H        2.1509381624   -0.8494503445   -1.1307655352
C        2.0675452285   -0.9481170317   -0.0517307034
C        3.0900780569   -1.5612324436    0.6778202039
C        2.9814289056   -1.6943416659    2.0675336594
C        1.8501612743   -1.2091811042    2.7498293716
C        0.8222669523   -0.6019069704    1.9982587300
C        0.9329658250   -0.4711639793    0.6093157258
H        0.1313004300   -0.0063100129    0.0417373588
H       -0.0843084486   -0.2453584838    2.4800862519
C        1.7320711998   -1.3605416134    4.2090352845
O        2.4827789562   -2.0780719343    4.8083070248
O        0.8064597221   -0.6146808271    4.8726823357
H        0.7703691066    0.2911116053    4.5467541279
H        3.7803545166   -2.1800744844    2.6241480981
H        3.9699928328   -1.9401253869    0.1655829707
15   

H        2.1027267706   -0.8653924500   -1.1266682345
C        2.0293482335   -0.9624629114   -0.0467354668
C        3.0544370874   -1.5830118671    0.6726100764
C        2.9592338469   -1.7133575700    2.0633835767
C        1.8400986804   -1.2169748873    2.7574147839
C        0.8082655824   -0.6034331587    2.0161275163
C        0.9053862759   -0.4761029789    0.6256660780
H        0.1017179849   -0.0061632382    0.0651147420
H       -0.0914796071   -0.2397224774    2.5048525067
C        1.7446223341   -1.3600076061    4.2189671693
O        2.4629092781   -2.1234719283    4.8019672369
O        0.8796570551   -0.5710231832    4.8998162704
H        0.7137027303    0.2641688277    4.4462888539
H        3.7606812734   -2.2034568169    2.6126193586
H        3.9263402145   -1.9689976502    0.1519579726
15   

H        2.0480120743   -0.9007165893   -1.1278406805
C        1.9857051514   -0.9915616708   -0.0466557826
C        3.0099525112   -1.6236544253    0.6634437588
C        2.9296607900   -1.7447855327    2.0557994321
C        1.8277308460   -1.2265522155    2.7612809569
C        0.7955545646   -0.6020466190    2.0293069040
C        0.8773796921   -0.4849683482    0.6367680052
H        0.0745371868   -0.0059572597    0.0827412760
H       -0.0928005656   -0.2204101912    2.5244168975
C        1.7595309640   -1.3521489483    4.2260582469
O        2.4386431647   -2.1607922615    4.7957947108
O        0.9540667574   -0.5217591351    4.9195930511
H        0.6435555903    0.2202057428    4.3848023805
H        3.7314060965   -2.2418412528    2.5983989718
H        3.8703063554   -2.0244679203    0.1347867426
15   

H        1.9918048771   -0.9392894463   -1.1330642734
C        1.9428151214   -1.0198650580   -0.0503758666
C        2.9616925206   -1.6703987152    0.6501091359
C        2.8991585326   -1.7770376566    2.0443390977
C        1.8214333561   -1.2257551786    2.7626956008
C        0.7944372462   -0.5812671949    2.0399376342
C        0.8580652506   -0.4798230716    0.6450004242
H        0.0601787132    0.0153307688    0.0980742320
H       -0.0754922262   -0.1674559614    2.5406457503
C        1.7842871622   -1.3319355372    4.2312349782
O        2.4463606446   -2.1623385220    4.7902618717
O        1.0071228433   -0.4880721497    4.9361936299
H        0.5258446077    0.1308077647    4.3713537733
H        3.6984654024   -2.2865928179    2.5789413150
H        3.8049810348   -2.0954931506    0.1129581016
