15   

H        2.1271735076   -1.0610760582   -1.2209000631
C        1.9701880138   -1.0475306139   -0.1458256068
C        3.0517400118   -1.2090819734    0.7250415182
C        2.8496035073   -1.1921327329    2.1114852719
C        1.5750217493   -1.0076583079    2.6408529889
C        0.4892273850   -0.8565668009    1.7591057547
C        0.6850900441   -0.8725848095    0.3736021928
H       -0.1620525550   -0.7512160334   -0.2955417408
H       -0.5139387168   -0.7261740415    2.1592543528
C        1.3363139185   -1.0078945632    4.1002347776
O        0.2532049108   -1.1124393342    4.6203504509
O        2.4619677039   -0.8943821956    4.8444944995
H        2.1477969181   -0.9106861212    5.7603535071
H        3.7100954640   -1.3264421401    2.7621010003
H        4.0522035604   -1.3500578619    0.3259820556
15   

H        2.1246472860   -1.0335680066   -1.2187905184
C        1.9683865349   -1.0309928535   -0.1435298106
C        3.0460703741   -1.2339597859    0.7240858419
C        2.8439185366   -1.2315988433    2.1105081007
C        1.5758451323   -1.0141948099    2.6412102956
C        0.4920431653   -0.8312815349    1.7648196771
C        0.6874089105   -0.8324314888    0.3789791784
H       -0.1568539692   -0.6835927375   -0.2882415196
H       -0.5072725820   -0.6894837739    2.1703958016
C        1.3412519635   -1.0533571554    4.1018528964
O        0.3073808204   -1.3862309155    4.6242305881
O        2.4261712109   -0.7149007822    4.8376100888
H        2.1290451997   -0.7916128280    5.7560133905
H        3.6941522712   -1.4007105825    2.7666543584
H        4.0421658837   -1.3970850577    0.3225687413
15   

H        2.1177430934   -1.0081098563   -1.2164901228
C        1.9639218611   -1.0165902211   -0.1409080615
C        3.0381700441   -1.2616045098    0.7207711831
C        2.8382667866   -1.2736982318    2.1073376471
C        1.5785392440   -1.0245961847    2.6418248852
C        0.4961126218   -0.8062937235    1.7737735711
C        0.6889138656   -0.7926179205    0.3874299002
H       -0.1526154838   -0.6144557448   -0.2760297508
H       -0.4981077337   -0.6504706387    2.1861041192
C        1.3535862452   -1.0994281784    4.1052591957
O        0.4186322885   -1.6454844608    4.6319319426
O        2.3541334565   -0.5472849687    4.8298364307
H        2.0881512975   -0.6791125359    5.7514194338
H        3.6787827095   -1.4750822061    2.7669420375
H        4.0284889418   -1.4467075337    0.3145410775
15   

H        2.1067587409   -0.9837341211   -1.2155327916
C        1.9581489144   -1.0062312907   -0.1394203930
C        3.0296469371   -1.2973335566    0.7117965616
C        2.8360211088   -1.3272371152    2.0988945858
C        1.5870224546   -1.0499659896    2.6422061447
C        0.5058384443   -0.7862551089    1.7866920718
C        0.6923814059   -0.7543642076    0.3996199623
H       -0.1466353389   -0.5407644268   -0.2565031519
H       -0.4808956521   -0.6098536671    2.2079200370
C        1.3771912808   -1.1498826846    4.1105338262
O        0.5893811345   -1.8830960933    4.6473983084
O        2.2370570073   -0.3838103871    4.8190275566
H        2.0116237668   -0.5557805498    5.7446684507
H        3.6699107015   -1.5622609871    2.7556354835
H        4.0120815234   -1.5040915346    0.2969651337
15   

H        2.0896327657   -0.9507973427   -1.2157594892
C        1.9514566448   -0.9933203634   -0.1388611544
C        3.0217368240   -1.3390518085    0.6934669581
C        2.8415329041   -1.3943200049    2.0815640886
C        1.6068408550   -1.0943136274    2.6431597313
C        0.5275817681   -0.7671176618    1.8080125340
C        0.7008671417   -0.7096805556    0.4199554800
H       -0.1361631353   -0.4497555013   -0.2218173243
H       -0.4463828920   -0.5603791144    2.2442917869
C        1.4183718898   -1.2028539988    4.1181781231
O        0.8236936331   -2.0837055336    4.6786978889
O        2.0538759283   -0.2230829855    4.7977098676
H        1.8716572408   -0.4128178520    5.7292542475
H        3.6732220123   -1.6688499321    2.7254210423
H        3.9926307371   -1.5674593188    0.2631027670
15   

H        2.0780868243   -0.9098248225   -1.2148586090
C        1.9525834965   -0.9734706732   -0.1374505058
C        3.0178275565   -1.3854871949    0.6707002793
C        2.8537545594   -1.4680159714    2.0594546257
C        1.6377601395   -1.1415041076    2.6452017903
C        0.5679591451   -0.7298468854    1.8353318138
C        0.7247766766   -0.6452632489    0.4467129342
H       -0.1065118878   -0.3263709944   -0.1756232301
H       -0.3858865298   -0.4777536662    2.2914383625
C        1.4730089987   -1.2405544486    4.1258747246
O        1.1012532053   -2.2147593928    4.7218263265
O        1.7928661101   -0.0917309814    4.7602209395
H        1.6470277552   -0.2803551226    5.6983165646
H        3.6824125424   -1.7907054598    2.6845548153
H        3.9726393919   -1.6427917325    0.2210765641
15   

H        2.0619299374   -0.8790497563   -1.2142884579
C        1.9514688321   -0.9557140105   -0.1360819237
C        3.0114372158   -1.4250710704    0.6471003683
C        2.8664447572   -1.5247666222    2.0368281587
C        1.6710777304   -1.1693990617    2.6487218174
C        0.6126023501   -0.6836221125    1.8642054339
C        0.7500733600   -0.5820560808    0.4747113847
H       -0.0749030410   -0.2118191274   -0.1272487620
H       -0.3175968170   -0.3865711486    2.3416220839
C        1.5383119488   -1.2544280516    4.1318157707
O        1.4097146879   -2.2666544531    4.7662480239
O        1.5123004017   -0.0369475889    4.7172106322
H        1.4075075796   -0.2213765657    5.6616545078
H        3.6920747663   -1.8895828187    2.6426977246
H        3.9478265226   -1.7126186053    0.1774794252
15   

H        2.0487283873   -0.8846207992   -1.2172488710
C        1.9501733766   -0.9588594002   -0.1377204700
C        3.0022850501   -1.4686810856    0.6303329627
C        2.8726607065   -1.5653425127    2.0217252364
C        1.6979208442   -1.1710126480    2.6518016138
C        0.6503152545   -0.6382453549    1.8810806427
C        0.7728986105   -0.5398081346    0.4900044837
H       -0.0447274699   -0.1354383326   -0.0998981820
H       -0.2602933190   -0.3018334698    2.3702923773
C        1.5964290045   -1.2427548451    4.1339544843
O        1.7085418184   -2.2410864406    4.7950790157
O        1.2701419846   -0.0543673349    4.6902017034
H        1.2142090639   -0.2364196024    5.6393666665
H        3.6927049304   -1.9612305978    2.6159929588
H        3.9210359092   -1.7898440863    0.1478198444
15   

H        2.0333480336   -0.9131402595   -1.2227800412
C        1.9445722028   -0.9746813683   -0.1416054113
C        2.9880040694   -1.5117233927    0.6193108801
C        2.8713850995   -1.5919213787    2.0127836059
C        1.7174240984   -1.1528007744    2.6543384806
C        0.6776824727   -0.5944718995    1.8881686719
C        0.7885129364   -0.5127329163    0.4950170030
H       -0.0224196800   -0.0880495827   -0.0898372455
H       -0.2191297982   -0.2253043185    2.3794632436
C        1.6441545613   -1.2154775829    4.1344176728
O        1.9849076384   -2.1537229375    4.8074671940
O        1.0718743935   -0.1194490780    4.6837194797
H        1.0708130699   -0.2971125063    5.6354746265
H        3.6854929801   -2.0098006345    2.6006347360
H        3.8902878660   -1.8671375083    0.1297716410
15   

H        2.0177215257   -0.9530386529   -1.2296521105
C        1.9381291642   -0.9963333419   -0.1468787912
C        2.9725888655   -1.5530641085    0.6115626656
C        2.8683765349   -1.6096800419    2.0070876944
C        1.7361895746   -1.1234446828    2.6558132027
C        0.7023971167   -0.5507017828    1.8890972495
C        0.8022461293   -0.4928421873    0.4939286803
H       -0.0027079700   -0.0551391315   -0.0896011487
H       -0.1835729108   -0.1515383584    2.3766152136
C        1.6838699788   -1.1792633719    4.1339537702
O        2.2303402313   -2.0124054923    4.8120087637
O        0.9059723805   -0.2185085294    4.6851733777
H        0.9568719285   -0.3830067496    5.6380261497
H        3.6777040677   -2.0441232158    2.5899185158
H        3.8587785256   -1.9425880174    0.1185777774
15   

H        1.9967623798   -0.9985488609   -1.2355066722
C        1.9271955649   -1.0218994678   -0.1514282909
C        2.9532646169   -1.5945606779    0.6058808627
C        2.8626774277   -1.6251127168    2.0031200482
C        1.7537231703   -1.0925346466    2.6572694761
C        0.7245635589   -0.5100196188    1.8889142523
C        0.8119452569   -0.4783033020    0.4920856393
H        0.0122840394   -0.0302803743   -0.0909041340
H       -0.1498626781   -0.0810754469    2.3718313547
C        1.7167859944   -1.1395533839    4.1348693982
O        2.4373567390   -1.8226228019    4.8195694351
O        0.7649310552   -0.3497073746    4.6851518911
H        0.8588008808   -0.4876083530    5.6390228319
H        3.6683853268   -2.0734523899    2.5805920345
H        3.8229864876   -2.0170558619    0.1107123030
15   

H        1.9716838363   -1.0475017910   -1.2388639871
C        1.9132133798   -1.0499014471   -0.1538816114
C        2.9316319820   -1.6363231534    0.6029275456
C        2.8559176633   -1.6392787990    2.0013721641
C        1.7711758701   -1.0614683951    2.6583320889
C        0.7462428433   -0.4710201532    1.8892632715
C        0.8193502769   -0.4666598704    0.4912754817
H        0.0247347375   -0.0093773928   -0.0914311528
H       -0.1134979940   -0.0118416356    2.3706635472
C        1.7452535820   -1.0947464362    4.1362315885
O        2.6010901807   -1.5895811598    4.8276185173
O        0.6531705606   -0.5093032164    4.6816360815
H        0.7779856787   -0.6089903818    5.6367401875
H        3.6566943089   -2.0997824045    2.5761517988
H        3.7841533867   -2.0910886394    0.1064278003
15   

H        1.9428081767   -1.0963259395   -1.2386207475
C        1.8962407748   -1.0779959310   -0.1532147301
C        2.9074102003   -1.6776607549    0.6032335733
C        2.8472829559   -1.6530115717    2.0022310415
C        1.7877701653   -1.0308317694    2.6592356365
C        0.7669193879   -0.4332576233    1.8913605423
C        0.8243408587   -0.4558364322    0.4928024719
H        0.0346410682    0.0102405736   -0.0896115946
H       -0.0752433028    0.0541577458    2.3761404208
C        1.7680236527   -1.0466950957    4.1378279895
O        2.7114770644   -1.3258307833    4.8353945750
O        0.5776515138   -0.6891161596    4.6743416150
H        0.7186255560   -0.7416488728    5.6309317237
H        3.6406252760   -2.1237622189    2.5789886691
H        3.7419410825   -2.1639323634    0.1060330592
15   

H        1.9153641107   -1.1385419062   -1.2355605114
C        1.8803414409   -1.1010626319   -0.1502144136
C        2.8824905322   -1.7163504075    0.6063618069
C        2.8371716160   -1.6662333475    2.0052864486
C        1.8045831785   -0.9994947031    2.6597614547
C        0.7894773351   -0.3928857420    1.8941242443
C        0.8314071906   -0.4399933548    0.4956123005
H        0.0476218579    0.0360742487   -0.0866954514
H       -0.0337941018    0.1199069770    2.3852615627
C        1.7840533419   -0.9976994261    4.1397371598
O        2.7616547916   -1.0494982360    4.8426783265
O        0.5419984531   -0.8781425426    4.6641638976
H        0.6825569585   -0.8801513385    5.6221921349
H        3.6205535773   -2.1476981018    2.5866194700
H        3.6978777906   -2.2341902536    0.1092897786
15   

H        1.8897885654   -1.1733117114   -1.2310667904
C        1.8653335341   -1.1182843893   -0.1461792465
C        2.8555596066   -1.7517523696    0.6116652857
C        2.8236111673   -1.6785019759    2.0100256110
C        1.8194261163   -0.9679417384    2.6602269800
C        0.8133160002   -0.3486615891    1.8959988636
C        0.8408644593   -0.4178542103    0.4980397365
H        0.0649308619    0.0702587542   -0.0847937900
H        0.0095145250    0.1890701782    2.3926627756
C        1.7934632355   -0.9448832003    4.1430370010
O        2.7502839752   -0.7666230362    4.8516483970
O        0.5468179806   -1.0710140850    4.6534115390
H        0.6708105820   -1.0220413023    5.6123853552
H        3.5954065062   -2.1730652129    2.5954338596
H        3.6506069424   -2.3015119796    0.1159355025
15   

H        1.8737393638   -1.2017562091   -1.2273502449
C        1.8548440551   -1.1316265705   -0.1432234853
C        2.8264986610   -1.7872614198    0.6201856194
C        2.8015836751   -1.6941567534    2.0176222523
C        1.8244835839   -0.9416422295    2.6591073548
C        0.8359084022   -0.3018935212    1.8917938429
C        0.8555568840   -0.3900063653    0.4947757691
H        0.0933597741    0.1148179628   -0.0919272759
H        0.0524911376    0.2650286516    2.3883476610
C        1.7910699962   -0.8900048866    4.1451899715
O        2.6770102737   -0.4859195492    4.8509845332
O        0.5974155042   -1.2735569318    4.6513676635
H        0.6959096756   -1.1757384035    5.6094470366
H        3.5577835677   -2.2057505944    2.6082045879
H        3.6011895798   -2.3695059178    0.1293566788
15   

H        1.8759942861   -1.2160236223   -1.2250216012
C        1.8528325092   -1.1344743650   -0.1417757220
C        2.7940656110   -1.8190166425    0.6345525922
C        2.7635605273   -1.7112254378    2.0308891714
C        1.8088804705   -0.9196584023    2.6566764989
C        0.8545996325   -0.2450485688    1.8781747144
C        0.8795040338   -0.3474881725    0.4821827575
H        0.1425633952    0.1822970016   -0.1146954914
H        0.0943203228    0.3599500574    2.3653999775
C        1.7699864762   -0.8345619914    4.1451889787
O        2.5399579867   -0.2183024690    4.8314923067
O        0.7111687128   -1.4888463558    4.6709639689
H        0.7857292786   -1.3482305249    5.6257611879
H        3.4961621542   -2.2446379515    2.6313886701
H        3.5494041610   -2.4346844195    0.1544805040
15   

H        1.9106465452   -1.2132796387   -1.2245240966
C        1.8684754617   -1.1259017229   -0.1423056343
C        2.7633789191   -1.8466281991    0.6560121884
C        2.7082077333   -1.7317931572    2.0510529156
C        1.7676188039   -0.9061614372    2.6526979286
C        0.8706339548   -0.1813077591    1.8528038284
C        0.9201931422   -0.2911093624    0.4579934368
H        0.2238368480    0.2723220626   -0.1565537072
H        0.1363160535    0.4686378780    2.3215827068
C        1.7235761227   -0.7864501195    4.1403386036
O        2.3327034541    0.0170083868    4.7929140153
O        0.9060190191   -1.6989713158    4.7090252552
H        0.9623962159   -1.5211176815    5.6587941698
H        3.4062956751   -2.2911159439    2.6686159117
H        3.5024428439   -2.4949347391    0.1939343835
15   

H        1.9514646080   -1.2011997032   -1.2237351967
C        1.8846900120   -1.1143216188   -0.1427152055
C        2.7255967267   -1.8757491883    0.6763720551
C        2.6387926198   -1.7617487095    2.0698606993
C        1.7112838138   -0.9050314319    2.6491887415
C        0.8813308859   -0.1260151468    1.8284330152
C        0.9626089940   -0.2353230337    0.4350648375
H        0.3135593873    0.3652815083   -0.1958565873
H        0.1751522956    0.5660344736    2.2801704282
C        1.6627618949   -0.7599451383    4.1322855712
O        2.0749866191    0.1840223909    4.7509295601
O        1.1553112254   -1.8515610794    4.7458395414
H        1.1933936646   -1.6420425001    5.6901009422
H        3.2972821382   -2.3501701475    2.7037195137
H        3.4482950170   -2.5539637377    0.2316805581
15   

H        1.9884388334   -1.1981665086   -1.2223627758
C        1.8991897905   -1.1130836253   -0.1428237978
C        2.6940577505   -1.9055252076    0.6924247550
C        2.5786775198   -1.7936236373    2.0840394834
C        1.6632464380   -0.9118247996    2.6466060274
C        0.8864809773   -0.0964132377    1.8086645280
C        0.9964014325   -0.2033860166    0.4171694111
H        0.3858387186    0.4242431554   -0.2257662783
H        0.1995394188    0.6233050029    2.2471979757
C        1.5962172013   -0.7529411735    4.1231769655
O        1.7812278409    0.2768966197    4.7161987547
O        1.3883439102   -1.9219421949    4.7700343836
H        1.3885107829   -1.6850560241    5.7086982527
H        3.2045984106   -2.4055511403    2.7287754389
H        3.4041943829   -2.6057712744    0.2618749904
15   

H        2.0149315656   -1.1944359162   -1.2224247717
C        1.9110674092   -1.1123788839   -0.1439589444
C        2.6681612487   -1.9321750711    0.6994125357
C        2.5343907127   -1.8244161650    2.0897965145
C        1.6372851376   -0.9181310888    2.6452160037
C        0.8985796379   -0.0768995349    1.7970061161
C        1.0272174166   -0.1795074864    0.4069586185
H        0.4454682337    0.4694568169   -0.2415052091
H        0.2252788907    0.6605290324    2.2278618237
C        1.5411137294   -0.7595713251    4.1160844188
O        1.4896788121    0.2955801061    4.6937603843
O        1.5887101666   -1.9344690216    4.7856507065
H        1.5334169481   -1.6844641817    5.7193961132
H        3.1353329997   -2.4599817228    2.7355714467
H        3.3639672588   -2.6510263447    0.2761816425
15   

H        2.0401965702   -1.1866167542   -1.2236655133
C        1.9256940270   -1.1083637700   -0.1459942822
C        2.6489175901   -1.9537232821    0.7011597317
C        2.5017324774   -1.8517468180    2.0907549812
C        1.6270710150   -0.9213588956    2.6441673895
C        0.9177713624   -0.0597306992    1.7893952732
C        1.0602963362   -0.1566433084    0.4005045080
H        0.5019776517    0.5104155064   -0.2502097378
H        0.2537897412    0.6897960930    2.2143288655
C        1.4956788248   -0.7734899047    4.1107672385
O        1.2113706235    0.2520767369    4.6764130352
O        1.7686297458   -1.9065716420    4.7996538000
H        1.6502142943   -1.6594048392    5.7283731224
H        3.0806724821   -2.5125272766    2.7312405414
H        3.3291005192   -2.6893796405    0.2814062242
15   

H        2.0648547830   -1.1740150543   -1.2244974815
C        1.9406968158   -1.1009766368   -0.1475280300
C        2.6308867279   -1.9717979534    0.7007474118
C        2.4713770199   -1.8775965807    2.0896518253
C        1.6211151905   -0.9241232014    2.6435138155
C        0.9377967409   -0.0436200715    1.7849997478
C        1.0931464646   -0.1330592434    0.3971575466
H        0.5565644042    0.5511419078   -0.2540590396
H        0.2815477866    0.7154938960    2.2051743448
C        1.4546560578   -0.7934231178    4.1070663019
O        0.9511230189    0.1524037904    4.6606374231
O        1.9392653029   -1.8416822609    4.8143220322
H        1.7607589259   -1.6121201838    5.7380122103
H        3.0265197369   -2.5652937147    2.7226411359
H        3.2946106432   -2.7230502032    0.2822493988
15   

H        2.1248479196   -1.0886097779   -1.2217068633
C        1.9689205171   -1.0630879703   -0.1466950800
C        3.0551203808   -1.1833803838    0.7247592557
C        2.8547364967   -1.1505359610    2.1112145931
C        1.5758198306   -0.9981885517    2.6410089043
C        0.4868535464   -0.8776673467    1.7576335713
C        0.6811191496   -0.9097913795    0.3722463068
H       -0.1692853467   -0.8155215714   -0.2971323635
H       -0.5184873195   -0.7580303745    2.1557491111
C        1.3386134267   -0.9604966406    4.0999134626
O        0.2563915372   -0.8311031359    4.6169866066
O        2.4596394751   -1.0856136719    4.8494203528
H        2.1436198186   -1.0425286838    5.7637993789
H        3.7224387009   -1.2469562263    2.7588657589
H        4.0585607706   -1.3027877715    0.3261256714
