15   

H        2.1271730816   -1.0610754791   -1.2209014132
C        1.9701896207   -1.0475290371   -0.1458266722
C        3.0517428843   -1.2090817847    0.7250385016
C        2.8496089340   -1.1921315220    2.1114825651
C        1.5750277870   -1.0076546219    2.6408534493
C        0.4892325554   -0.8565614697    1.7591072169
C        0.6850929715   -0.8725806058    0.3736033529
H       -0.1620505941   -0.7512107910   -0.2955391734
H       -0.5139330188   -0.7261667926    2.1592565717
C        1.3363210858   -1.0078906867    4.1002309048
O        0.2532050539   -1.1124340541    4.6203452440
O        2.4619734603   -0.8943814385    4.8444932876
H        2.1478007513   -0.9106857179    5.7603516690
H        3.7101016835   -1.3264421769    2.7620970141
H        4.0522054414   -1.3500596870    0.3259772666
15   

H        2.1246496322   -1.0335581073   -1.2187924235
C        1.9683909178   -1.0309821495   -0.1435314227
C        3.0460755558   -1.2339523068    0.7240822915
C        2.8439259868   -1.2315912278    2.1105048385
C        1.5758537613   -1.0141836917    2.6412106212
C        0.4920515265   -0.8312664373    1.7648206977
C        0.6874149841   -0.8324168036    0.3789798908
H       -0.1568487069   -0.6835758052   -0.2882392879
H       -0.5072636244   -0.6894663239    2.1703975502
C        1.3412581693   -1.0533494998    4.1018494937
O        0.3073782575   -1.3862224383    4.6242210238
O        2.4261759099   -0.7149028536    4.8376133114
H        2.1290457584   -0.7916188449    5.7560149771
H        3.6941599722   -1.4007061075    2.7666499728
H        4.0421698480   -1.3970807366    0.3225634578
15   

H        2.1177448952   -1.0080961124   -1.2164917914
C        1.9639255088   -1.0165761751   -0.1409094641
C        3.0381742004   -1.2615943276    0.7207678637
C        2.8382729610   -1.2736887314    2.1073345668
C        1.5785464729   -1.0245832249    2.6418253198
C        0.4961199500   -0.8062761962    1.7737746561
C        0.6889192198   -0.7926000401    0.3874307232
H       -0.1526107316   -0.6144352924   -0.2760274765
H       -0.4980997803   -0.6504512098    2.1861060488
C        1.3535898644   -1.0994205047    4.1052576715
O        0.4186272776   -1.6454773707    4.6319184925
O        2.3541363159   -0.5472898969    4.8298454174
H        2.0881484935   -0.6791242490    5.7514258286
H        3.6787888740   -1.4750765969    2.7669377690
H        4.0284918128   -1.4467005009    0.3145360673
15   

H        2.1067605027   -0.9837239056   -1.2155332341
C        1.9581513868   -1.0062205588   -0.1394207286
C        3.0296493862   -1.2973250471    0.7117954534
C        2.8360243652   -1.3272288295    2.0988935466
C        1.5870257975   -1.0499551465    2.6422064415
C        0.5058422002   -0.7862417928    1.7866925452
C        0.6923846969   -0.7543510206    0.3996203731
H       -0.1466320593   -0.5407500024   -0.2565023250
H       -0.4808916651   -0.6098394571    2.2079206980
C        1.3771931461   -1.1498765936    4.1105319093
O        0.5893773061   -1.8830917488    4.6473898020
O        2.2370599643   -0.3838117959    4.8190324191
H        2.0116243010   -0.5557872187    5.7446717623
H        3.6699136843   -1.5622553804    2.7556338318
H        4.0120832212   -1.5040851610    0.2969633151
15   

H        2.0896331271   -0.9507903635   -1.2157595544
C        1.9514577693   -0.9933122961   -0.1388610785
C        3.0217381150   -1.3390446116    0.6934664468
C        2.8415350846   -1.3943120820    2.0815637010
C        1.6068433651   -1.0943036303    2.6431602318
C        0.5275842601   -0.7671067711    1.8080133784
C        0.7008689708   -0.7096706172    0.4199561990
H       -0.1361614727   -0.4497453282   -0.2218162939
H       -0.4463801688   -0.5603676593    2.2442928987
C        1.4183744819   -1.2028470139    4.1181755102
O        0.8236908824   -2.0837035743    4.6786892923
O        2.0538799143   -0.2230816938    4.7977142109
H        1.8716595806   -0.4128217764    5.7292572328
H        3.6732241503   -1.6688434947    2.7254200872
H        3.9926313596   -1.5674538340    0.2631016537
15   

H        2.0780868351   -0.9098248778   -1.2148586163
C        1.9525835057   -0.9734707121   -0.1374505115
C        3.0178275676   -1.3854872050    0.6707002829
C        2.8537545594   -1.4680159714    2.0594546257
C        1.6377601395   -1.1415041076    2.6452017903
C        0.5679591477   -0.7298469016    1.8353318046
C        0.7247766816   -0.6452632929    0.4467129242
H       -0.1065118866   -0.3263710602   -0.1756232456
H       -0.3858865319   -0.4777536834    2.2914383462
C        1.4730089987   -1.2405544486    4.1258747246
O        1.1012532053   -2.2147593928    4.7218263265
O        1.7928661239   -0.0917309854    4.7602209387
H        1.6470278360   -0.2803551483    5.6983165694
H        3.6824125421   -1.7907054459    2.6845548229
H        3.9726394128   -1.6427917380    0.2210765866
15   

H        2.0619300306   -0.8790495488   -1.2142884330
C        1.9514688932   -0.9557138605   -0.1360819095
C        3.0114372437   -1.4250710127    0.6471003795
C        2.8664447572   -1.5247666222    2.0368281587
C        1.6710777304   -1.1693990617    2.6487218174
C        0.6126023876   -0.6836220155    1.8642054454
C        0.7500734311   -0.5820559052    0.4747114021
H       -0.0749029408   -0.2118188639   -0.1272487252
H       -0.3175967747   -0.3865710181    2.3416220829
C        1.5383119488   -1.2544280516    4.1318157707
O        1.4097146879   -2.2666544531    4.7662480239
O        1.5123007957   -0.0369476080    4.7172106837
H        1.4075075330   -0.2213765909    5.6616545102
H        3.6920747466   -1.8895828705    2.6426977205
H        3.9478265465   -1.7126185624    0.1774794405
15   

H        2.0487282350   -0.8846209498   -1.2172488764
C        1.9501732783   -0.9588595014   -0.1377204670
C        3.0022849928   -1.4686811409    0.6303329501
C        2.8726607065   -1.5653425127    2.0217252364
C        1.6979208442   -1.1710126480    2.6518016138
C        0.6503152333   -0.6382453691    1.8810806739
C        0.7728985376   -0.5398082020    0.4900045096
H       -0.0447275644   -0.1354384210   -0.0998981425
H       -0.2602933178   -0.3018334720    2.3702924427
C        1.5964290045   -1.2427548451    4.1339544843
O        1.7085418184   -2.2410864406    4.7950790157
O        1.2701426504   -0.0543671877    4.6902017777
H        1.2142091792   -0.2364195783    5.6393666853
H        3.6927049486   -1.9612305651    2.6159929555
H        3.9210358349   -1.7898441528    0.1478198044
15   

H        2.0333481719   -0.9131399645   -1.2227800138
C        1.9445723004   -0.9746811644   -0.1416053925
C        2.9880041213   -1.5117232906    0.6193108895
C        2.8713850995   -1.5919213787    2.0127836059
C        1.7174240984   -1.1528007744    2.6543384806
C        0.6776825274   -0.5944717863    1.8881686869
C        0.7885130328   -0.5127327149    0.4950170240
H       -0.0224195429   -0.0880493024   -0.0898372229
H       -0.2191297200   -0.2253041693    2.3794632728
C        1.6441545613   -1.2154775829    4.1344176728
O        1.9849076384   -2.1537229375    4.8074671940
O        1.0718749050   -0.1194488374    4.6837195271
H        1.0708130803   -0.2971125086    5.6354746277
H        3.6854929474   -2.0098006946    2.6006347389
H        3.8902879233   -1.8671373964    0.1297716511
15   

H        2.0177215269   -0.9530386324   -1.2296521010
C        1.9381291624   -0.9963333332   -0.1468787844
C        2.9725888689   -1.5530640982    0.6115626678
C        2.8683765349   -1.6096800419    2.0070876944
C        1.7361895746   -1.1234446828    2.6558132027
C        0.7023971100   -0.5507017895    1.8890972552
C        0.8022461204   -0.4928421915    0.4939286859
H       -0.0027079827   -0.0551391450   -0.0896011488
H       -0.1835729173   -0.1515383805    2.3766152312
C        1.6838699788   -1.1792633719    4.1339537702
O        2.2303402313   -2.0124054923    4.8120087637
O        0.9059726259   -0.2185083376    4.6851733899
H        0.9568717600   -0.3830068598    5.6380261314
H        3.6777040707   -2.0441232057    2.5899185193
H        3.8587785365   -1.9425879899    0.1185777783
15   

H        1.9967624346   -0.9985487640   -1.2355066711
C        1.9271956062   -1.0218993951   -0.1514282894
C        2.9532646255   -1.5945606648    0.6058808627
C        2.8626774277   -1.6251127168    2.0031200482
C        1.7537231703   -1.0925346466    2.6572694761
C        0.7245635838   -0.5100195690    1.8889142569
C        0.8119453103   -0.4783032063    0.4920856439
H        0.0122841261   -0.0302802240   -0.0909041320
H       -0.1498626399   -0.0810753749    2.3718313667
C        1.7167859944   -1.1395533839    4.1348693982
O        2.4373567390   -1.8226228019    4.8195694351
O        0.7649311777   -0.3497072337    4.6851519027
H        0.8588008297   -0.4876084134    5.6390228324
H        3.6683853085   -2.0734524230    2.5805920344
H        3.8229864788   -2.0170558858    0.1107123029
15   

H        1.9716838289   -1.0475018183   -1.2388639947
C        1.9132133723   -1.0499014635   -0.1538816175
C        2.9316319757   -1.6363231635    0.6029275431
C        2.8559176633   -1.6392787990    2.0013721641
C        1.7711758701   -1.0614683951    2.6583320889
C        0.7462428382   -0.4710201634    1.8892632669
C        0.8193502700   -0.4666598864    0.4912754753
H        0.0247347246   -0.0093774164   -0.0914311576
H       -0.1134980019   -0.0118416455    2.3706635378
C        1.7452535820   -1.0947464362    4.1362315885
O        2.6010901807   -1.5895811598    4.8276185173
O        0.6531705585   -0.5093032127    4.6816360788
H        0.7779856664   -0.6089903693    5.6367401879
H        3.6566943148   -2.0997824014    2.5761517930
H        3.7841533783   -2.0910886479    0.1064277938
15   

H        1.9428083606   -1.0963255954   -1.2386207459
C        1.8962409042   -1.0779956934   -0.1532147287
C        2.9074102684   -1.6776606354    0.6032335722
C        2.8472829559   -1.6530115717    2.0022310415
C        1.7877701653   -1.0308317694    2.6592356365
C        0.7669194455   -0.4332575177    1.8913605463
C        0.8243409847   -0.4558362087    0.4928024766
H        0.0346412459    0.0102408942   -0.0896115876
H       -0.0752432321    0.0541578713    2.3761404270
C        1.7680236527   -1.0466950957    4.1378279895
O        2.7114770644   -1.3258307833    4.8353945750
O        0.5776514816   -0.6891162770    4.6743416180
H        0.7186256310   -0.7416486783    5.6309317269
H        3.6406252379   -2.1237622867    2.5789886663
H        3.7419411621   -2.1639322209    0.1060330568
15   

H        1.9153642483   -1.1385416235   -1.2355605141
C        1.8803415358   -1.1010624460   -0.1502144133
C        2.8824905800   -1.7163503085    0.6063618023
C        2.8371716160   -1.6662333475    2.0052864486
C        1.8045831785   -0.9994947031    2.6597614547
C        0.7894773597   -0.3928856938    1.8941242525
C        0.8314072632   -0.4399932058    0.4956123051
H        0.0476219608    0.0360744522   -0.0866954432
H       -0.0337940827    0.1199070033    2.3852615835
C        1.7840533419   -0.9976994261    4.1397371598
O        2.7616547916   -1.0494982360    4.8426783265
O        0.5419984196   -0.8781428649    4.6641638947
H        0.6825569565   -0.8801511474    5.6221921286
H        3.6205535491   -2.1476981546    2.5866194643
H        3.6978778492   -2.2341901369    0.1092897683
15   

H        1.8897884984   -1.1733117241   -1.2310667769
C        1.8653334881   -1.1182843962   -0.1461792325
C        2.8555595749   -1.7517523807    0.6116652840
C        2.8236111673   -1.6785019759    2.0100256110
C        1.8194261163   -0.9679417384    2.6602269800
C        0.8133159878   -0.3486615856    1.8959988895
C        0.8408644266   -0.4178542051    0.4980397617
H        0.0649308237    0.0702587655   -0.0847937537
H        0.0095145231    0.1890701759    2.3926628263
C        1.7934632355   -0.9448832003    4.1430370010
O        2.7502839752   -0.7666230362    4.8516483970
O        0.5468180455   -1.0710146248    4.6534115591
H        0.6708105844   -1.0220412938    5.6123853557
H        3.5954065144   -2.1730652067    2.5954338540
H        3.6506068930   -2.3015120058    0.1159354863
15   

H        1.8737394212   -1.2017561306   -1.2273502454
C        1.8548440928   -1.1316265131   -0.1432234849
C        2.8264986595   -1.7872614149    0.6201856211
C        2.8015836751   -1.6941567534    2.0176222523
C        1.8244835839   -0.9416422295    2.6591073548
C        0.8359084297   -0.3018934842    1.8917938441
C        0.8555569378   -0.3900062855    0.4947757680
H        0.0933598597    0.1148180924   -0.0919272758
H        0.0524911730    0.2650286968    2.3883476608
C        1.7910699962   -0.8900048866    4.1451899715
O        2.6770102737   -0.4859195492    4.8509845332
O        0.5974157145   -1.2735575210    4.6513677091
H        0.6959097047   -1.1757384695    5.6094470472
H        3.5577835513   -2.2057506170    2.6082045892
H        3.6011895478   -2.3695059522    0.1293566817
15   

H        1.8759942535   -1.2160236724   -1.2250215920
C        1.8528324916   -1.1344743975   -0.1417757155
C        2.7940655964   -1.8190166716    0.6345525965
C        2.7635605273   -1.7112254378    2.0308891714
C        1.8088804705   -0.9196584023    2.6566764989
C        0.8545996360   -0.2450485678    1.8781747165
C        0.8795040298   -0.3474881847    0.4821827596
H        0.1425633992    0.1822969904   -0.1146954960
H        0.0943203285    0.3599500601    2.3653999804
C        1.7699864762   -0.8345619914    4.1451889787
O        2.5399579867   -0.2183024690    4.8314923067
O        0.7111689866   -1.4888467721    4.6709640078
H        0.7857293622   -1.3482306857    5.6257612037
H        3.4961621527   -2.2446379515    2.6313886721
H        3.5494041236   -2.4346844809    0.1544805136
15   

H        1.9106463921   -1.2132797445   -1.2245240858
C        1.8684753534   -1.1259018057   -0.1423056233
C        2.7633788625   -1.8466282388    0.6560121874
C        2.7082077333   -1.7317931572    2.0510529156
C        1.7676188039   -0.9061614372    2.6526979286
C        0.8706338889   -0.1813078252    1.8528038452
C        0.9201930291   -0.2911094617    0.4579934590
H        0.2238366877    0.2723219271   -0.1565536635
H        0.1363159596    0.4686377778    2.3215827276
C        1.7235761227   -0.7864501195    4.1403386036
O        2.3327034541    0.0170083868    4.7929140153
O        0.9060189788   -1.6989712835    4.7090252464
H        0.9623961807   -1.5211176545    5.6587941601
H        3.4062957035   -2.2911159150    2.6686159058
H        3.5024427725   -2.4949347868    0.1939343736
15   

H        1.9514609719   -1.2012023416   -1.2237354349
C        1.8846855843   -1.1143254030   -0.1427154004
C        2.7255929182   -1.8757525892    0.6763715832
C        2.6387882206   -1.7617532588    2.0698602660
C        1.7112776663   -0.9050374246    2.6491887030
C        0.8813241773   -0.1260216032    1.8284330957
C        0.9626031594   -0.2353284318    0.4350648822
H        0.3135533815    0.3652760288   -0.1958564418
H        0.1751449738    0.5660273691    2.2801705629
C        1.6627576143   -0.7599503163    4.1322825295
O        2.0749834754    0.1840236460    4.7509227253
O        1.1553113358   -1.8515653093    4.7458418808
H        1.1933965007   -1.6420436223    5.6901025079
H        3.2972786910   -2.3501739378    2.7037188094
H        3.4482924115   -2.5539656784    0.2316798157
15   

H        1.9884322345   -1.1981718970   -1.2223635759
C        1.8991830238   -1.1130900539   -0.1428245289
C        2.6940528865   -1.9055304180    0.6924233239
C        2.5786730363   -1.7936296870    2.0840381168
C        1.6632396550   -0.9118325715    2.6466059170
C        0.8864723144   -0.0964226316    1.8086645041
C        0.9963928113   -0.2033947006    0.4171693309
H        0.3858289722    0.4242337688   -0.2257659778
H        0.1995298593    0.6232946688    2.2471981191
C        1.5962129775   -0.7529458054    4.1231748595
O        1.7812220763    0.2768979128    4.7161909590
O        1.3883458930   -1.9219443600    4.7700387240
H        1.3885154580   -1.6850537057    5.7087014777
H        3.2045959788   -2.4055556203    2.7287735685
H        3.4041910750   -2.6057745342    0.2618729469
15   

H        2.0149215245   -1.1944443401   -1.2224271134
C        1.9110579009   -1.1123891734   -0.1439610937
C        2.6681555129   -1.9321834298    0.6994086774
C        2.5343863698   -1.8244260447    2.0897928548
C        1.6372779206   -0.9181442789    2.6452156359
C        0.8985684047   -0.0769154634    1.7970061407
C        1.0272050943   -0.1795217460    0.4069584209
H        0.4454532434    0.4694414709   -0.2415041015
H        0.2252660155    0.6605112277    2.2278625438
C        1.5411089085   -0.7595789055    4.1160822823
O        1.4896697931    0.2955813614    4.6937461185
O        1.5887157198   -1.9344695012    4.7856601506
H        1.5334250788   -1.6844558566    5.7194033676
H        3.1353321130   -2.4599892961    2.7355668291
H        3.3639638795   -2.6510315632    0.2761763284
15   

H        2.0401904723   -1.1866236205   -1.2236677246
C        1.9256880920   -1.1083726129   -0.1459963343
C        2.6489148752   -1.9537306822    0.7011561841
C        2.5017305012   -1.8517560583    2.0907516065
C        1.6270662862   -0.9213713044    2.6441669162
C        0.9177631072   -0.0597452589    1.7893951304
C        1.0602875367   -0.1566559021    0.4005041822
H        0.5019664527    0.5104020609   -0.2502088802
H        0.2537795251    0.6897796027    2.2143291305
C        1.4956755607   -0.7734985858    4.1107632085
O        1.2113619973    0.2520745689    4.6764041840
O        1.7686334438   -1.9065748184    4.7996560178
H        1.6502188629   -1.6594031038    5.7283741767
H        3.0806733631   -2.5125348314    2.7312363342
H        3.3291001116   -2.6893841751    0.2814013993
15   

H        2.0648549320   -1.1740143505   -1.2244986298
C        1.9406969929   -1.1009781581   -0.1475290236
C        2.6308888321   -1.9717995455    0.7007446819
C        2.4713793375   -1.8776009104    2.0896492677
C        1.6211153547   -0.9241296484    2.6435138879
C        0.9377949943   -0.0436268198    1.7850007288
C        1.0931447598   -0.1330635122    0.3971583787
H        0.5565612428    0.5511376751   -0.2540569713
H        0.2815444560    0.7154854871    2.2051759136
C        1.4546566499   -0.7934309211    4.1070616868
O        0.9511186087    0.1524007142    4.6606327138
O        1.9392676993   -1.8416878542    4.8143195452
H        1.7607605858   -1.6121245485    5.7380093177
H        3.0265236796   -2.5652979482    2.7226372839
H        3.2946142008   -2.7230496677    0.2822451544
15   

H        2.0869134559   -1.1573567269   -1.2238971829
C        1.9531978850   -1.0915836967   -0.1476030293
C        2.6109763036   -1.9883130882    0.6991181666
C        2.4389648236   -1.9040534453    2.0872114912
C        1.6135344168   -0.9298471498    2.6431869150
C        0.9544077821   -0.0303193272    1.7846256711
C        1.1225172307   -0.1098426086    0.3977283312
H        0.6071071858    0.5915444735   -0.2523109444
H        0.3061437091    0.7364525660    2.2033545065
C        1.4158270656   -0.8205743991    4.1043664813
O        0.7150869652    0.0001981621    4.6434598662
O        2.0995468069   -1.7382239688    4.8286323082
H        1.8698878066   -1.5386221273    5.7479960359
H        2.9660070355   -2.6178585444    2.7151962417
H        3.2580459142   -2.7535749481    0.2799109576
