15   

H        2.1271733810   -1.0610768319   -1.2209000709
C        1.9701879318   -1.0475312081   -0.1458256096
C        3.0517399792   -1.2090822663    0.7250415158
C        2.8496035073   -1.1921327329    2.1114852719
C        1.5750217493   -1.0076583079    2.6408529889
C        0.4892273443   -0.8565671029    1.7591057562
C        0.6850899642   -0.8725853939    0.3736021928
H       -0.1620526637   -0.7512167883   -0.2955417341
H       -0.5139387465   -0.7261742825    2.1592543606
C        1.3363139185   -1.0078945632    4.1002347776
O        0.2532049108   -1.1124393342    4.6203504509
O        2.4619672648   -0.8943772168    4.8444943823
H        2.1477987742   -0.9107060373    5.7603537331
H        3.7100954421   -1.3264417525    2.7621011047
H        4.0522035376   -1.3500580725    0.3259820494
15   

H        2.1246470756   -1.0335689204   -1.2187905289
C        1.9683863917   -1.0309936106   -0.1435298118
C        3.0460703184   -1.2339601619    0.7240858328
C        2.8439185366   -1.2315988433    2.1105081007
C        1.5758451323   -1.0141948099    2.6412102956
C        0.4920431012   -0.8312819094    1.7648196993
C        0.6874087726   -0.8324322312    0.3789791943
H       -0.1568541576   -0.6835936319   -0.2882414724
H       -0.5072725955   -0.6894839711    2.1703959026
C        1.3412519635   -1.0533571554    4.1018528964
O        0.3073808204   -1.3862309155    4.6242305881
O        2.4261685605   -0.7148921125    4.8376099092
H        2.1290607898   -0.7916649046    5.7560140445
H        3.6941522522   -1.4007098152    2.7666545488
H        4.0421658403   -1.3970852395    0.3225686876
15   

H        2.1177427355   -1.0081107567   -1.2164901416
C        1.9639216157   -1.0165909682   -0.1409080612
C        3.0381699125   -1.2616049249    0.7207711508
C        2.8382667866   -1.2736982318    2.1073376471
C        1.5785392440   -1.0245961847    2.6418248852
C        0.4961125602   -0.8062939065    1.7737736461
C        0.6889136699   -0.7926184952    0.3874299579
H       -0.1526157388   -0.6144563015   -0.2760296123
H       -0.4981076563   -0.6504704000    2.1861044084
C        1.3535862452   -1.0994281784    4.1052591957
O        0.4186322885   -1.6454844608    4.6319319426
O        2.3541271572   -0.5472738213    4.8298364088
H        2.0881956928   -0.6791959818    5.7514205264
H        3.6787828528   -1.4750813403    2.7669420325
H        4.0284887934   -1.4467077510    0.3145409146
15   

H        2.1067582737   -0.9837341630   -1.2155327556
C        1.9581486174   -1.0062313488   -0.1394203347
C        3.0296467366   -1.2973336481    0.7117965127
C        2.8360211088   -1.3272371152    2.0988945858
C        1.5870224546   -1.0499659896    2.6422061447
C        0.5058384520   -0.7862546986    1.7866922724
C        0.6923812278   -0.7543639405    0.3996201512
H       -0.1466355601   -0.5407638060   -0.2565027941
H       -0.4808953726   -0.6098526020    2.2079206538
C        1.3771912808   -1.1498826846    4.1105338262
O        0.5893811345   -1.8830960933    4.6473983084
O        2.2370462696   -0.3837986503    4.8190276133
H        2.0116980393   -0.5558678481    5.7446708270
H        3.6699109894   -1.5622607031    2.7556350932
H        4.0120812339   -1.5040915510    0.2969648353
15   

H        2.0896327038   -0.9507959319   -1.2157593404
C        1.9514566525   -0.9933192773   -0.1388610094
C        3.0217367536   -1.3390513975    0.6934669472
C        2.8415329041   -1.3943200049    2.0815640886
C        1.6068408550   -1.0943136274    2.6431597313
C        0.5275819813   -0.7671165088    1.8080127930
C        0.7008673104   -0.7096790148    0.4199557642
H       -0.1361628762   -0.4497531710   -0.2218168380
H       -0.4463823665   -0.5603772652    2.2442924720
C        1.4183718898   -1.2028539988    4.1181781231
O        0.8236936331   -2.0837055336    4.6786978889
O        2.0538642885   -0.2230752806    4.7977094947
H        1.8717255744   -0.4128656930    5.7292582096
H        3.6732221346   -1.6688504827    2.7254205610
H        3.9926305239   -1.5674590790    0.2631025190
15   

H        2.0780868846   -0.9098246291   -1.2148585901
C        1.9525835406   -0.9734705274   -0.1374504912
C        3.0178275797   -1.3854871240    0.6707002856
C        2.8537545594   -1.4680159714    2.0594546257
C        1.6377601395   -1.1415041076    2.6452017903
C        0.5679591783   -0.7298467791    1.8353318258
C        0.7247767269   -0.6452630822    0.4467129513
H       -0.1065118221   -0.3263707559   -0.1756231979
H       -0.3858864804   -0.4777535247    2.2914383882
C        1.4730089987   -1.2405544486    4.1258747246
O        1.1012532053   -2.2147593928    4.7218263265
O        1.7928653763   -0.0917307399    4.7602208736
H        1.6470283894   -0.2803553259    5.6983166212
H        3.6824125332   -1.7907055227    2.6845547939
H        3.9726394140   -1.6427916654    0.2210765696
15   

H        2.0619299269   -0.8790508422   -1.2142886093
C        1.9514687544   -0.9557148754   -0.1360820699
C        3.0114372349   -1.4250714444    0.6471003629
C        2.8664447572   -1.5247666222    2.0368281587
C        1.6710777304   -1.1693990617    2.6487218174
C        0.6126021492   -0.6836228043    1.8642052180
C        0.7500731720   -0.5820571380    0.4747111273
H       -0.0749032740   -0.2118206088   -0.1272492138
H       -0.3175972937   -0.3865720303    2.3416213390
C        1.5383119488   -1.2544280516    4.1318157707
O        1.4097146879   -2.2666544531    4.7662480239
O        1.5123125893   -0.0369481373    4.7172121547
H        1.4074281079   -0.2213748791    5.6616463023
H        3.6920748274   -1.8895821654    2.6426980769
H        3.9478266950   -1.7126187862    0.1774796101
15   

H        2.0487283765   -0.8846214737   -1.2172489474
C        1.9501733277   -0.9588599032   -0.1377205374
C        3.0022850223   -1.4686814117    0.6303329552
C        2.8726607065   -1.5653425127    2.0217252364
C        1.6979208442   -1.1710126480    2.6518016138
C        0.6503153352   -0.6382452543    1.8810806033
C        0.7728986530   -0.5398083595    0.4900044009
H       -0.0447272760   -0.1354384710   -0.0998984169
H       -0.2602931743   -0.3018328441    2.3702919358
C        1.5964290045   -1.2427548451    4.1339544843
O        1.7085418184   -2.2410864406    4.7950790157
O        1.2701565975   -0.0543643576    4.6902035758
H        1.2141014296   -0.2364451687    5.6393558754
H        3.6927049953   -1.9612300399    2.6159932809
H        3.9210359733   -1.7898443658    0.1478199807
15   

H        2.0333483834   -0.9131394976   -1.2227799299
C        1.9445724325   -0.9746808176   -0.1416053221
C        2.9880041276   -1.5117232607    0.6193109025
C        2.8713850995   -1.5919213787    2.0127836059
C        1.7174240984   -1.1528007744    2.6543384806
C        0.6776829041   -0.5944709590    1.8881688427
C        0.7885133985   -0.5127318599    0.4950171677
H       -0.0224188364   -0.0880478091   -0.0898370881
H       -0.2191288923   -0.2253023713    2.3794634003
C        1.6441545613   -1.2154775829    4.1344176728
O        1.9849076384   -2.1537229375    4.8074671940
O        1.0718857161   -0.1194439365    4.6837207295
H        1.0707233828   -0.2971562529    5.6354666532
H        3.6854929467   -2.0098005114    2.6006348946
H        3.8902879360   -1.8671374019    0.1297717015
15   

H        2.0177216996   -0.9530380324   -1.2296520097
C        1.9381292775   -0.9963328997   -0.1468787017
C        2.9725888658   -1.5530639937    0.6115626746
C        2.8683765349   -1.6096800419    2.0070876944
C        1.7361895746   -1.1234446828    2.6558132027
C        0.7023974456   -0.5507010506    1.8890974253
C        0.8022464447   -0.4928413570    0.4939288496
H       -0.0027073644   -0.0551377261   -0.0896009490
H       -0.1835721111   -0.1515368420    2.3766155495
C        1.6838699788   -1.1792633719    4.1339537702
O        2.2303402313   -2.0124054923    4.8120087637
O        0.9059793633   -0.2185033058    4.6851739845
H        0.9568178606   -0.3830485616    5.6380219064
H        3.6777040732   -2.0441231509    2.5899185672
H        3.8587785102   -1.9425879118    0.1185777659
15   

H        1.9967623207   -0.9985487703   -1.2355066425
C        1.9271955260   -1.0218993891   -0.1514282587
C        2.9532645530   -1.5945607051    0.6058808580
C        2.8626774277   -1.6251127168    2.0031200482
C        1.7537231703   -1.0925346466    2.6572694761
C        0.7245637033   -0.5100193036    1.8889143343
C        0.8119453494   -0.4783029958    0.4920857174
H        0.0122842575   -0.0302798025   -0.0909040222
H       -0.1498622782   -0.0810747371    2.3718315379
C        1.7167859944   -1.1395533839    4.1348693982
O        2.4373567390   -1.8226228019    4.8195694351
O        0.7649341829   -0.3497037763    4.6851521055
H        0.8587801660   -0.4876324201    5.6390213955
H        3.6683853542   -2.0734523330    2.5805920429
H        3.8229863874   -2.0170559343    0.1107122764
15   

H        1.9716838066   -1.0475019005   -1.2388639974
C        1.9132133596   -1.0499015217   -0.1538816204
C        2.9316319734   -1.6363231925    0.6029275451
C        2.8559176633   -1.6392787990    2.0013721641
C        1.7711758701   -1.0614683951    2.6583320889
C        0.7462428322   -0.4710201869    1.8892632616
C        0.8193502561   -0.4666599409    0.4912754682
H        0.0247347058   -0.0093774962   -0.0914311761
H       -0.1134980074   -0.0118416731    2.3706635351
C        1.7452535820   -1.0947464362    4.1362315885
O        2.6010901807   -1.5895811598    4.8276185173
O        0.6531705459   -0.5093032362    4.6816360789
H        0.7779856363   -0.6089904263    5.6367401868
H        3.6566943180   -2.0997823839    2.5761518026
H        3.7841533805   -2.0910886804    0.1064278056
15   

H        1.9428081623   -1.0963259388   -1.2386207302
C        1.8962407571   -1.0779959305   -0.1532147127
C        2.9074102307   -1.6776606957    0.6032335789
C        2.8472829559   -1.6530115717    2.0022310415
C        1.7877701653   -1.0308317694    2.6592356365
C        0.7669192381   -0.4332578748    1.8913605765
C        0.8243407278   -0.4558366313    0.4928025008
H        0.0346408141    0.0102401571   -0.0896115739
H       -0.0752436440    0.0541571020    2.3761405020
C        1.7680236527   -1.0466950957    4.1378279895
O        2.7114770644   -1.3258307833    4.8353945750
O        0.5776501716   -0.6891206069    4.6743415646
H        0.7186349582   -0.7416182565    5.6309320144
H        3.6406252257   -2.1237622890    2.5789886836
H        3.7419411394   -2.1639322671    0.1060330782
15   

H        1.9153638003   -1.1385420245   -1.2355604368
C        1.8803412036   -1.1010627323   -0.1502143384
C        2.8824904747   -1.7163503347    0.6063618028
C        2.8371716160   -1.6662333475    2.0052864486
C        1.8045831785   -0.9994947031    2.6597614547
C        0.7894768962   -0.3928863834    1.8941244007
C        0.8314067009   -0.4399939065    0.4956124499
H        0.0476210562    0.0360732075   -0.0866952833
H       -0.0337949720    0.1199054644    2.3852618494
C        1.7840533419   -0.9976994261    4.1397371598
O        2.7616547916   -1.0494982360    4.8426783265
O        0.5419977378   -0.8781513486    4.6641640692
H        0.6825635458   -0.8800833736    5.6221914052
H        3.6205535027   -2.1476981901    2.5866195079
H        3.6978777402   -2.2341901278    0.1092897301
15   

H        1.8897881157   -1.1733122933   -1.2310667159
C        1.8653331955   -1.1182847971   -0.1461791786
C        2.8555595192   -1.7517524560    0.6116652961
C        2.8236111673   -1.6785019759    2.0100256110
C        1.8194261163   -0.9679417384    2.6602269800
C        0.8133154470   -0.3486624134    1.8959989992
C        0.8408638256   -0.4178550825    0.4980398613
H        0.0649298374    0.0702572249   -0.0847936962
H        0.0095133916    0.1890684284    2.3926628542
C        1.7934632355   -0.9448832003    4.1430370010
O        2.7502839752   -0.7666230362    4.8516483970
O        0.5468196437   -1.0710264649    4.6534122351
H        0.6707999268   -1.0219418500    5.6123819482
H        3.5954063720   -2.1730652861    2.5954339995
H        3.6506068569   -2.3015120870    0.1159355354
15   

H        1.8737398366   -1.2017559933   -1.2273502800
C        1.8548443909   -1.1316263597   -0.1432235222
C        2.8264988732   -1.7872612956    0.6201856342
C        2.8015836751   -1.6941567534    2.0176222523
C        1.8244835839   -0.9416422295    2.6591073548
C        0.8359083436   -0.3018936689    1.8917937947
C        0.8555570580   -0.3900063424    0.4947756960
H        0.0933599532    0.1148178132   -0.0919275049
H        0.0524906766    0.2650281889    2.3883471788
C        1.7910699962   -0.8900048866    4.1451899715
O        2.6770102737   -0.4859195492    4.8509845332
O        0.5974207256   -1.2735709414    4.6513689930
H        0.6958741323   -1.1756332665    5.6094404063
H        3.5577831387   -2.2057509416    2.6082048765
H        3.6011897630   -2.3695059505    0.1293568362
15   

H        1.8759955391   -1.2160226378   -1.2250217330
C        1.8528334493   -1.1344735594   -0.1417758470
C        2.7940660589   -1.8190163282    0.6345525954
C        2.7635605273   -1.7112254378    2.0308891714
C        1.8088804705   -0.9196584023    2.6566764989
C        0.8546002621   -0.2450478404    1.8781745122
C        0.8795050970   -0.3474871363    0.4821825224
H        0.1425649266    0.1822984459   -0.1146959406
H        0.0943210238    0.3599512039    2.3653992611
C        1.7699864762   -0.8345619914    4.1451889787
O        2.5399579867   -0.2183024690    4.8314923067
O        0.7111756813   -1.4888565149    4.6709651858
H        0.7856857505   -1.3481640058    5.6257550602
H        3.4961615466   -2.2446384627    2.6313889999
H        3.5494045270   -2.4346843534    0.1544806959
15   

H        1.9106464867   -1.2132797133   -1.2245240991
C        1.8684754146   -1.1259017882   -0.1423056356
C        2.7633789019   -1.8466282250    0.6560121897
C        2.7082077333   -1.7317931572    2.0510529156
C        1.7676188039   -0.9061614372    2.6526979286
C        0.8706339016   -0.1813078256    1.8528038288
C        0.9201930747   -0.2911094536    0.4579934396
H        0.2238367506    0.2723219414   -0.1565536955
H        0.1363159627    0.4686377712    2.3215827059
C        1.7235761227   -0.7864501195    4.1403386036
O        2.3327034541    0.0170083868    4.7929140153
O        0.9060184385   -1.6989708340    4.7090251928
H        0.9623967335   -1.5211181254    5.6587942144
H        3.4062956999   -2.2911159199    2.6686159043
H        3.5024428300   -2.4949347655    0.1939343929
15   

H        1.9514633739   -1.2012003040   -1.2237351110
C        1.8846890986   -1.1143221315   -0.1427151079
C        2.7255963385   -1.8757493000    0.6763720192
C        2.6387926198   -1.7617487095    2.0698606993
C        1.7112838138   -0.9050314319    2.6491887415
C        0.8813300331   -0.1260159193    1.8284332346
C        0.9626077880   -0.2353239363    0.4350650643
H        0.3135575720    0.3652801300   -0.1958561843
H        0.1751510360    0.5660330556    2.2801710596
C        1.6627618949   -0.7599451383    4.1322855712
O        2.0749866191    0.1840223909    4.7509295601
O        1.1552986370   -1.8515553719    4.7458391181
H        1.1934706713   -1.6420750840    5.6901054072
H        3.2972826727   -2.3501699567    2.7037190458
H        3.4482946899   -2.5539636171    0.2316802713
15   

H        1.9884385938   -1.1981660838   -1.2223627192
C        1.8991896598   -1.1130833374   -0.1428237231
C        2.6940577231   -1.9055249715    0.6924247138
C        2.5786775198   -1.7936236373    2.0840394834
C        1.6632464380   -0.9118247996    2.6466060274
C        0.8864806032   -0.0964134863    1.8086647174
C        0.9964010708   -0.2033860274    0.4171696020
H        0.3858380149    0.4242429799   -0.2257659260
H        0.1995386045    0.6233041405    2.2471985435
C        1.5962172013   -0.7529411735    4.1231769655
O        1.7812278409    0.2768966197    4.7161987547
O        1.3883282285   -1.9219393602    4.7700341533
H        1.3886241010   -1.6850724740    5.7087028802
H        3.2045983339   -2.4055515241    2.7287750203
H        3.4041942516   -2.6057709820    0.2618746851
15   

H        2.0149321460   -1.1944351497   -1.2224247312
C        1.9110679231   -1.1123782931   -0.1439588973
C        2.6681615251   -1.9321747608    0.6994125333
C        2.5343907127   -1.8244161650    2.0897965145
C        1.6372851376   -0.9181310888    2.6452160037
C        0.8985797770   -0.0768993839    1.7970061966
C        1.0272178316   -0.1795070126    0.4069587083
H        0.4454686331    0.4694573499   -0.2415050441
H        0.2252787500    0.6605288388    2.2278620891
C        1.5411137294   -0.7595713251    4.1160844188
O        1.4896788121    0.2955801061    4.6937603843
O        1.5886974289   -1.9344696246    4.7856503116
H        1.5335112204   -1.6844573709    5.7194000855
H        3.1353323352   -2.4599823033    2.7355714050
H        3.3639673351   -2.6510261504    0.2761815102
15   

H        2.0401974424   -1.1866159566   -1.2236654695
C        1.9256947295   -1.1083631594   -0.1459942439
C        2.6489179484   -1.9537229945    0.7011597485
C        2.5017324774   -1.8517468180    2.0907549812
C        1.6270710150   -0.9213588956    2.6441673895
C        0.9177716985   -0.0597304097    1.7893953022
C        1.0602970095   -0.1566427196    0.4005045512
H        0.5019784709    0.5104162444   -0.2502096665
H        0.2537899379    0.6897962352    2.2143289510
C        1.4956788248   -0.7734899047    4.1107672385
O        1.2113706235    0.2520767369    4.6764130352
O        1.7686210024   -1.9065740031    4.7996532751
H        1.6502666009   -1.6593903389    5.7283759019
H        3.0806717822   -2.5125277058    2.7312406984
H        3.3291007144   -2.6893794790    0.2814061970
15   

H        2.0648549613   -1.1740149803   -1.2244974727
C        1.9406969955   -1.1009765450   -0.1475280228
C        2.6308868268   -1.9717979203    0.7007474253
C        2.4713770199   -1.8775965807    2.0896518253
C        1.6211151905   -0.9241232014    2.6435138155
C        0.9377968632   -0.0436199826    1.7849997417
C        1.0931466568   -0.1330591295    0.3971575422
H        0.5565646114    0.5511420222   -0.2540590573
H        0.2815478690    0.7154939553    2.2051743343
C        1.4546560578   -0.7934231178    4.1070663019
O        0.9511230189    0.1524037904    4.6606374231
O        1.9392608727   -1.8416845267    4.8143216833
H        1.7607767604   -1.6121111529    5.7380133572
H        3.0265194840   -2.5652938308    2.7226412272
H        3.2946106676   -2.7230502435    0.2822494245
15   

H        2.1248479242   -1.0886097444   -1.2217068599
C        1.9689205253   -1.0630879482   -0.1466950756
C        3.0551203865   -1.1833803729    0.7247592576
C        2.8547364967   -1.1505359610    2.1112145931
C        1.5758198306   -0.9981885517    2.6410089043
C        0.4868535478   -0.8776673397    1.7576335751
C        0.6811191583   -0.9097913600    0.3722463129
H       -0.1692853354   -0.8155215416   -0.2971323551
H       -0.5184873192   -0.7580303692    2.1557491134
C        1.3386134267   -0.9604966406    4.0999134626
O        0.2563915372   -0.8311031359    4.6169866066
O        2.4596394827   -1.0856136609    4.8494203467
H        2.1436198443   -1.0425286624    5.7637993775
H        3.7224387023   -1.2469562321    2.7588657570
H        4.0585607773   -1.3027877603    0.3261256747
