
  -OEChem-11102115313D

  6  5  0     0  0  0  0  0  0999 V2000
    1.3089    1.5797   -0.2266 Br  0  0  0  0  0  0  0  0  0  0  0  0
   -0.0998    0.2584   -0.0597 C   0  0  0  0  0  0  0  0  0  0  0  0
    0.4613   -1.0044    0.2364 O   0  0  0  0  0  0  0  0  0  0  0  0
   -0.6341    0.2213   -1.0118 H   0  0  0  0  0  0  0  0  0  0  0  0
   -0.7604    0.5787    0.7490 H   0  0  0  0  0  0  0  0  0  0  0  0
    0.9436   -0.9130    1.0757 H   0  0  0  0  0  0  0  0  0  0  0  0
  1  2  1  0  0  0  0
  2  3  1  0  0  0  0
  2  4  1  0  0  0  0
  2  5  1  0  0  0  0
  3  6  1  0  0  0  0
M  END
$$$$
