15   

H        1.8844939602   -1.1974153204   -1.1372586943
C        1.8989343397   -1.1491087076   -0.0516465638
C        2.9606391455   -1.7132750008    0.6606495219
C        2.9827138427   -1.6488067331    2.0589099990
C        1.9377032352   -1.0273759130    2.7676380149
C        0.8787670808   -0.4514117110    2.0340834572
C        0.8609412838   -0.5150116678    0.6357979732
H        0.0425738532   -0.0641684783    0.0808486400
H        0.0688494122    0.0724075627    2.5336853202
C        1.9680883683   -0.9741836753    4.2380957310
O        2.9986688411   -1.1458666493    4.8281181973
O        0.8176975165   -0.7689074310    4.9117198680
H        0.0392111191   -0.8750488027    4.3499162352
H        3.8160687546   -2.0885436478    2.6033592045
H        3.7727420807   -2.2015638527    0.1292353675
15   

H        1.8836855685   -1.2630009149   -1.1392459522
C        1.8975242454   -1.2018928278   -0.0542868925
C        2.9496742446   -1.7733198679    0.6666845788
C        2.9716441969   -1.6911655334    2.0642096402
C        1.9362490203   -1.0429450423    2.7629973364
C        0.8870073649   -0.4610352234    2.0206388443
C        0.8686007290   -0.5432225847    0.6235237383
H        0.0576369967   -0.0865648541    0.0625014807
H        0.0863572811    0.0823190403    2.5150122383
C        1.9669687079   -0.9570535557    4.2318023284
O        2.9799005709   -1.1865343014    4.8318113293
O        0.8201727735   -0.6788308861    4.8963827097
H        0.0378198781   -0.9607343381    4.4072733019
H        3.7987941051   -2.1346246466    2.6149743304
H        3.7551834472   -2.2796859528    0.1422548324
15   

H        1.8958601439   -1.3125124032   -1.1453674520
C        1.9057506969   -1.2419784039   -0.0609630954
C        2.9499910636   -1.8156531008    0.6699203098
C        2.9671875038   -1.7205107447    2.0668752382
C        1.9351453175   -1.0554324348    2.7547945050
C        0.8935627927   -0.4730690733    2.0023514619
C        0.8794388977   -0.5687245003    0.6062298350
H        0.0740259415   -0.1107395370    0.0383721770
H        0.0955348386    0.0802631579    2.4903465640
C        1.9609905227   -0.9456727612    4.2222483695
O        2.9519553600   -1.2277853219    4.8353878664
O        0.8187513595   -0.5924102168    4.8733903761
H        0.0425735843   -1.0278828458    4.5047395272
H        3.7891234854   -2.1644687326    2.6248717633
H        3.7535413422   -2.3330082182    0.1533480209
15   

H        1.9219776720   -1.3338975254   -1.1566113647
C        1.9244016764   -1.2605591346   -0.0723838473
C        2.9607623698   -1.8366092902    0.6679737304
C        2.9681711089   -1.7376123017    2.0649079982
C        1.9345595700   -1.0648659767    2.7430499871
C        0.9005001855   -0.4818413002    1.9810004873
C        0.8957353295   -0.5817026266    0.5852594366
H        0.0953876339   -0.1228614508    0.0110266368
H        0.0999330740    0.0732101731    2.4631320601
C        1.9493342915   -0.9460609383    4.2102323805
O        2.9158055587   -1.2749738308    4.8379288803
O        0.8161862423   -0.5120029357    4.8460307092
H        0.0570692655   -1.0667189309    4.6424410287
H        3.7844044235   -2.1829941142    2.6299468059
H        3.7659100668   -2.3585135722    0.1586058018
15   

H        1.9614676705   -1.3224314745   -1.1733845872
C        1.9526766232   -1.2536143590   -0.0889328278
C        2.9803905393   -1.8339483406    0.6601889103
C        2.9726579769   -1.7413165414    2.0576726738
C        1.9329520536   -1.0694432275    2.7274522791
C        0.9072875236   -0.4834486299    1.9565352514
C        0.9172699830   -0.5772483935    0.5605012134
H        0.1222384816   -0.1165815030   -0.0195438642
H        0.0997747347    0.0659304961    2.4336884532
C        1.9291469593   -0.9584922434    4.1957048625
O        2.8728577852   -1.3252648400    4.8365564315
O        0.8133844471   -0.4410311361    4.8144917730
H        0.0849205742   -1.0676986832    4.8165559905
H        3.7819626173   -2.1905983820    2.6293884304
H        3.7902818200   -2.3545960272    0.1571909582
15   

H        2.0124672432   -1.2864535687   -1.1912271889
C        1.9887866430   -1.2287719045   -0.1063872525
C        3.0061251593   -1.8165191008    0.6511118736
C        2.9781783733   -1.7393793941    2.0493691334
C        1.9290796874   -1.0744286031    2.7116013982
C        0.9136956175   -0.4819022899    1.9320994820
C        0.9434588782   -0.5606412172    0.5354811245
H        0.1548936259   -0.0960708661   -0.0501666798
H        0.0962603404    0.0568993519    2.4044465403
C        1.8997871122   -0.9847514010    4.1816005266
O        2.8238530391   -1.3846174627    4.8327035659
O        0.8135777641   -0.3840208727    4.7813433930
H        0.1343895329   -1.0226726858    5.0130015120
H        3.7788357501   -2.1957258842    2.6274547110
H        3.8231076276   -2.3317154600    0.1541018991
15   

H        2.0645144687   -1.2497725065   -1.2060707538
C        2.0244697385   -1.2045242721   -0.1211556020
C        3.0314002537   -1.7988487956    0.6450788599
C        2.9814403596   -1.7388597248    2.0436464534
C        1.9210716864   -1.0834111421    2.6976822261
C        0.9160122630   -0.4850706544    1.9090842337
C        0.9674131600   -0.5470963161    0.5123176051
H        0.1854337989   -0.0791731688   -0.0793919761
H        0.0874449126    0.0417502977    2.3755824619
C        1.8644648008   -1.0160943889    4.1688027370
O        2.7728100942   -1.4446641856    4.8270544181
O        0.8118864082   -0.3497796604    4.7476219735
H        0.2118289264   -0.9483311713    5.2015783603
H        3.7735265555   -2.2016463526    2.6282140074
H        3.8568940483   -2.3066667068    0.1546778797
15   

H        2.1054554010   -1.2293014233   -1.2160889188
C        2.0505425234   -1.1935874472   -0.1314942700
C        3.0484526935   -1.7918450050    0.6434471442
C        2.9786969127   -1.7449443997    2.0417405926
C        1.9079323497   -1.0974778352    2.6870002089
C        0.9117438722   -0.4959988866    1.8893555585
C        0.9825176100   -0.5455103295    0.4929977147
H        0.2062893721   -0.0760348182   -0.1049749809
H        0.0733069376    0.0209202167    2.3493629206
C        1.8283881370   -1.0446122746    4.1582436765
O        2.7179718929   -1.5063816611    4.8231421996
O        0.8069430448   -0.3321011349    4.7179690519
H        0.3143682362   -0.8555188143    5.3592646619
H        3.7635732964   -2.2116214311    2.6327610076
H        3.8820141681   -2.2930743543    0.1600402300
15   

H        2.1394954294   -1.2160327207   -1.2221951613
C        2.0722266861   -1.1858759661   -0.1381438171
C        3.0670488845   -1.7782074979    0.6453543545
C        2.9811055280   -1.7386461602    2.0430449211
C        1.8969686001   -1.1044794331    2.6790749782
C        0.9035506302   -0.5098688306    1.8727668955
C        0.9906871049   -0.5516274819    0.4771412676
H        0.2160830330   -0.0875661522   -0.1271102816
H        0.0537451148   -0.0056874143    2.3261889536
C        1.7990648920   -1.0595077510    4.1496555281
O        2.6824298442   -1.5240885205    4.8235997111
O        0.7732368745   -0.3583201056    4.6950982431
H        0.4261107457   -0.8002211738    5.4800723659
H        3.7633094295   -2.2011810813    2.6407210332
H        3.9105101369   -2.2694934311    0.1690194818
15   

H        2.1597498638   -1.2033758383   -1.2262394640
C        2.0832562325   -1.1788047896   -0.1426677645
C        3.0755045166   -1.7680878683    0.6464291524
C        2.9774375192   -1.7359599822    2.0435417179
C        1.8837119781   -1.1121637097    2.6732722245
C        0.8925926989   -0.5213293789    1.8614179389
C        0.9918721979   -0.5555123179    0.4664149529
H        0.2186324033   -0.0946567977   -0.1420062793
H        0.0346064365   -0.0271775704    2.3106037200
C        1.7732870249   -1.0739648113    4.1431193128
O        2.6438235577   -1.5544947917    4.8245015410
O        0.7398915337   -0.3917709077    4.6809002893
H        0.5372040601   -0.7272520831    5.5655056809
H        3.7573423740   -2.1965284027    2.6456600271
H        3.9261357346   -2.2515383340    0.1748761695
15   

H        2.1789436288   -1.1891600894   -1.2286857138
C        2.0951964819   -1.1693570879   -0.1455579844
C        3.0879534802   -1.7519791636    0.6479100513
C        2.9803065578   -1.7262441487    2.0444749581
C        1.8762495154   -1.1158337149    2.6690326779
C        0.8843687900   -0.5322690960    1.8529576286
C        0.9934322200   -0.5596083002    0.4585596136
H        0.2193026099   -0.1046333823   -0.1531419516
H        0.0177626911   -0.0501238880    2.2987513148
C        1.7556122556   -1.0841983111    4.1380086188
O        2.6168413565   -1.5725990153    4.8267423208
O        0.6983528723   -0.4453050078    4.6712337923
H        0.6316876847   -0.6531752277    5.6154516743
H        3.7600861031   -2.1822072644    2.6502157160
H        3.9460951536   -2.2257172382    0.1801387924
15   

H        2.1947093069   -1.1718835932   -1.2287385136
C        2.1059431837   -1.1574054643   -0.1459280016
C        3.1015682862   -1.7322139533    0.6496834869
C        2.9872630452   -1.7136295550    2.0458506587
C        1.8733528706   -1.1187091875    2.6677265045
C        0.8783352265   -0.5435165486    1.8495569730
C        0.9943545533   -0.5631266350    0.4556079146
H        0.2175711414   -0.1149024327   -0.1577146652
H        0.0034070096   -0.0748169845    2.2934743142
C        1.7453914501   -1.0948628721    4.1361247707
O        2.6008503096   -1.5892390423    4.8282279659
O        0.6573532767   -0.5109993448    4.6661296362
H        0.6999540803   -0.5653297355    5.6333404788
H        3.7687563490   -2.1642673235    2.6533532193
H        3.9667852598   -2.1948489539    0.1838446796
15   

H        2.2009544928   -1.1492686434   -1.2274152987
C        2.1103638939   -1.1418671728   -0.1446826534
C        3.1111843925   -1.7098759243    0.6492510987
C        2.9943864528   -1.7007242281    2.0452876782
C        1.8725073238   -1.1226114197    2.6688164121
C        0.8719667002   -0.5547408628    1.8522411630
C        0.9908163221   -0.5643457993    0.4584080901
H        0.2096515661   -0.1221205217   -0.1536997958
H       -0.0099829120   -0.1004014378    2.2971487188
C        1.7418442730   -1.1091455964    4.1372136933
O        2.5956126918   -1.6110677238    4.8255151724
O        0.6233657383   -0.5811850372    4.6669061589
H        0.7381070498   -0.4603452269    5.6215966941
H        3.7795609256   -2.1469103241    2.6513399740
H        3.9821034762   -2.1604584200    0.1822176783
15   

H        2.2026687478   -1.1255941457   -1.2237609089
C        2.1119071560   -1.1268800848   -0.1410128646
C        3.1182163345   -1.6906804757    0.6488960509
C        3.0011131481   -1.6930507654    2.0449096948
C        1.8732809768   -1.1310648985    2.6726710689
C        0.8668757437   -0.5679333574    1.8599340396
C        0.9863055510   -0.5655991104    0.4660942642
H        0.2005475951   -0.1274303233   -0.1430498419
H       -0.0207234264   -0.1274480614    2.3074100094
C        1.7424952170   -1.1297652323    4.1413428617
O        2.5948125588   -1.6433128635    4.8216728059
O        0.5999815756   -0.6453155250    4.6728259354
H        0.7516274357   -0.3386777537    5.5778857632
H        3.7903540146   -2.1366994050    2.6475671780
H        3.9934474914   -2.1295491969    0.1787633969
15   

H        2.2024597558   -1.1019395107   -1.2185606513
C        2.1118815631   -1.1140212221   -0.1358550323
C        3.1222807443   -1.6781204439    0.6485446457
C        3.0053414862   -1.6947260846    2.0444457085
C        1.8736957562   -1.1466545558    2.6777307215
C        0.8627337212   -0.5838410547    1.8704076206
C        0.9821099167   -0.5671788252    0.4766432616
H        0.1928099096   -0.1297524473   -0.1284583798
H       -0.0290883776   -0.1558021633    2.3214021178
C        1.7438414781   -1.1595802722    4.1464666813
O        2.5896860048   -1.6921495693    4.8182448066
O        0.5891282398   -0.6919400859    4.6844710685
H        0.7563898927   -0.2017431636    5.4991409894
H        3.7975822466   -2.1390691991    2.6427031731
H        4.0004342479   -2.1065371332    0.1742143525
15   

H        2.1953446542   -1.0663975550   -1.2108998603
C        2.1066491504   -1.0919055605   -0.1282554512
C        3.1239451093   -1.6550296780    0.6478058767
C        3.0094260049   -1.6892506594    2.0435151589
C        1.8734172487   -1.1600235877    2.6850075145
C        0.8549281833   -0.5989604585    1.8860747130
C        0.9721445919   -0.5643070229    0.4923979272
H        0.1772253047   -0.1287056751   -0.1066543839
H       -0.0417777548   -0.1876401817    2.3427176726
C        1.7466703787   -1.1927006338    4.1535260743
O        2.5937320746   -1.7315294789    4.8159687824
O        0.5843146081   -0.7355471359    4.7051185344
H        0.7467312763   -0.0720023406    5.3842247046
H        3.8067806820   -2.1333126891    2.6352566145
H        4.0054169252   -2.0694328820    0.1671654055
15   

H        2.1905437209   -1.0213889488   -1.1987933879
C        2.1017136179   -1.0645506292   -0.1166944272
C        3.1207384342   -1.6369539785    0.6502402993
C        3.0057111916   -1.6948814445    2.0450518486
C        1.8682595308   -1.1791279307    2.6946356968
C        0.8474403730   -0.6093515925    1.9051259017
C        0.9649094941   -0.5516467798    0.5121731564
H        0.1680607578   -0.1106734232   -0.0803963562
H       -0.0525488940   -0.2119668515    2.3674996418
C        1.7415377547   -1.2388741136    4.1617086621
O        2.5707483659   -1.8108536126    4.8153960276
O        0.6010843426   -0.7318112742    4.7354542568
H        0.7746778590    0.0717176422    5.2340679807
H        3.8038026165   -2.1467824495    2.6299678879
H        4.0036675369   -2.0406836252    0.1631563973
15   

H        2.1933728624   -0.9585890563   -1.1807871400
C        2.1027664202   -1.0221971747   -0.0998106846
C        3.1220176621   -1.6064786623    0.6577983163
C        3.0042467357   -1.6921272999    2.0508701469
C        1.8645581083   -1.1913520397    2.7078733003
C        0.8429024461   -0.6101909101    1.9280100646
C        0.9629499160   -0.5253077710    0.5366035862
H        0.1652596883   -0.0772740635   -0.0495706116
H       -0.0614300494   -0.2288728102    2.3953415283
C        1.7335388424   -1.2860344471    4.1719997394
O        2.5470548902   -1.8862473052    4.8167177345
O        0.6300298214   -0.7166576198    4.7707461311
H        0.8013009899    0.1859379278    5.0515046476
H        3.8016400714   -2.1543896034    2.6287669597
H        4.0068184213   -1.9987683734    0.1647030267
15   

H        2.1960985160   -0.8972118776   -1.1598426237
C        2.1040357812   -0.9793086874   -0.0801976595
C        3.1227885492   -1.5758829325    0.6684068637
C        3.0027309231   -1.6868187493    2.0594067493
C        1.8619943933   -1.1980441505    2.7233543905
C        0.8401367830   -0.6051503007    1.9526569801
C        0.9623434203   -0.4955652827    0.5631010461
H        0.1643469835   -0.0402718180   -0.0171152175
H       -0.0679758752   -0.2380889394    2.4240027186
C        1.7266404034   -1.3255009760    4.1840133022
O        2.5229630600   -1.9593881536    4.8163580767
O        0.6772146513   -0.6878127990    4.8066287795
H        0.8182109921    0.2612737249    4.8588856084
H        3.7989430611   -2.1598283106    2.6303667079
H        4.0085781685   -1.9589794359    0.1697901265
15   

H        2.1842731679   -0.8585624839   -1.1414700151
C        2.0943800325   -0.9525303291   -0.0625710443
C        3.1143698228   -1.5582471080    0.6768438781
C        2.9970279761   -1.6853352434    2.0665777535
C        1.8585732152   -1.2025984305    2.7386663818
C        0.8344988548   -0.6014803992    1.9771902633
C        0.9539512480   -0.4762231740    0.5886191355
H        0.1544990234   -0.0157612718    0.0144362869
H       -0.0748421244   -0.2435606153    2.4530397657
C        1.7265273604   -1.3498802070    4.1973750642
O        2.5033872645   -2.0224477502    4.8141403649
O        0.7378355067   -0.6540096401    4.8415042669
H        0.8071218129    0.2927487769    4.6857321843
H        3.7938276136   -2.1659357926    2.6304962503
H        3.9988671785   -1.9363448230    0.1720576640
15   

H        2.1519557300   -0.8483959075   -1.1305824393
C        2.0684085162   -0.9471977019   -0.0515718960
C        3.0908373761   -1.5604003080    0.6780533074
C        2.9819699779   -1.6937215282    2.0677310476
C        1.8505789870   -1.2086921924    2.7499144026
C        0.8228039414   -0.6013066592    1.9982674952
C        0.9337220596   -0.4703503610    0.6093640860
H        0.1321281204   -0.0054450520    0.0417261839
H       -0.0838808958   -0.2448926164    2.4799894072
C        1.7320711998   -1.3605416134    4.2090352845
O        2.4827789562   -2.0780719343    4.8083070248
O        0.8064597221   -0.6146808271    4.8726823357
H        0.7703691066    0.2911116053    4.5467541279
H        3.7807879660   -2.1795754773    2.6243937258
H        3.9708253858   -1.9392279942    0.1658941693
15   

H        2.1034393083   -0.8647425998   -1.1265601212
C        2.0299517161   -0.9618947530   -0.0466421139
C        3.0549670907   -1.5824971593    0.6727635313
C        2.9596104460   -1.7129723619    2.0635157108
C        1.8403889467   -1.2166695433    2.7574638194
C        0.8086397540   -0.6030588629    2.0161145638
C        0.9059144837   -0.4755983450    0.6256773524
H        0.1022972001   -0.0056272044    0.0650787279
H       -0.0911806792   -0.2394305121    2.5047627914
C        1.7446223341   -1.3600076061    4.2189671693
O        2.4629092781   -2.1234719283    4.8019672369
O        0.8796570551   -0.5710231832    4.8998162704
H        0.7137027303    0.2641688277    4.4462888539
H        3.7609828869   -2.2031474259    2.6127928026
H        3.9269220474   -1.9684441830    0.1521699343
15   

H        2.0483809618   -0.9004188360   -1.1277964416
C        1.9860173228   -0.9913004975   -0.0466178892
C        3.0102255501   -1.6234194165    0.6635156687
C        2.9298542519   -1.7446092307    2.0558623925
C        1.8278805532   -1.2264101396    2.7613001022
C        0.7957488369   -0.6018707707    2.0292908877
C        0.8776537770   -0.4847334771    0.6367624659
H        0.0748386936   -0.0057066127    0.0827093917
H       -0.0926438053   -0.2202699278    2.5243611898
C        1.7595309640   -1.3521489483    4.2260582469
O        2.4386431647   -2.1607922615    4.7957947108
O        0.9540667574   -0.5217591351    4.9195930511
H        0.6435555903    0.2202057428    4.3848023805
H        3.7315601191   -2.2417016780    2.5984862889
H        3.8706056636   -2.0242173329    0.1348898413
15   

H        1.9917977837   -0.9392948488   -1.1330649079
C        1.9428091002   -1.0198698318   -0.0503764051
C        2.9616872873   -1.6704029365    0.6501079476
C        2.8991548228   -1.7770408266    2.0443380439
C        1.8214304429   -1.2257578165    2.7626953430
C        0.7944334209   -0.5812705483    2.0399380487
C        0.8580599039   -0.4798274812    0.6450006771
H        0.0601728070    0.0153260023    0.0980749849
H       -0.0754953828   -0.1674587616    2.5406468720
C        1.7842871622   -1.3319355372    4.2312349782
O        2.4463606446   -2.1623385220    4.7902618717
O        1.0071228433   -0.4880721497    4.9361936299
H        0.5258446077    0.1308077647    4.3713537733
H        3.6984624946   -2.2865952432    2.5789397792
H        3.8049753366   -2.0954975671    0.1129563375
