15   

H        2.1271734948   -1.0610761602   -1.2209000671
C        1.9701880079   -1.0475306847   -0.1458256099
C        3.0517400110   -1.2090820037    0.7250415178
C        2.8496035073   -1.1921327329    2.1114852719
C        1.5750217493   -1.0076583079    2.6408529889
C        0.4892273839   -0.8565668182    1.7591057528
C        0.6850900389   -0.8725848719    0.3736021893
H       -0.1620525601   -0.7512161326   -0.2955417506
H       -0.5139387166   -0.7261740481    2.1592543514
C        1.3363139185   -1.0078945632    4.1002347776
O        0.2532049108   -1.1124393342    4.6203504509
O        2.4619676939   -0.8943820864    4.8444944970
H        2.1477969390   -0.9106863608    5.7603535087
H        3.7100954629   -1.3264421188    2.7621010060
H        4.0522035641   -1.3500578776    0.3259820608
15   

H        2.1246472469   -1.0335679380   -1.2187905143
C        1.9683865138   -1.0309928051   -0.1435298042
C        3.0460703631   -1.2339597705    0.7240858361
C        2.8439185366   -1.2315988433    2.1105081007
C        1.5758451323   -1.0141948099    2.6412102956
C        0.4920431597   -0.8312815012    1.7648196921
C        0.6874088930   -0.8324314312    0.3789791946
H       -0.1568539935   -0.6835926506   -0.2882414907
H       -0.5072725812   -0.6894837275    2.1703958315
C        1.3412519635   -1.0533571554    4.1018528964
O        0.3073808204   -1.3862309155    4.6242305881
O        2.4261711508   -0.7149005738    4.8376100806
H        2.1290453477   -0.7916132870    5.7560133937
H        3.6941522649   -1.4007105987    2.7666543622
H        4.0421658648   -1.3970850648    0.3225687187
15   

H        2.1177430917   -1.0081097464   -1.2164901194
C        1.9639218612   -1.0165901424   -0.1409080562
C        3.0381700413   -1.2616044707    0.7207711810
C        2.8382667866   -1.2736982318    2.1073376471
C        1.5785392440   -1.0245961847    2.6418248852
C        0.4961126236   -0.8062936856    1.7737735792
C        0.6889138703   -0.7926178398    0.3874299084
H       -0.1526154736   -0.6144556257   -0.2760297362
H       -0.4981077292   -0.6504705919    2.1861041284
C        1.3535862452   -1.0994281784    4.1052591957
O        0.4186322885   -1.6454844608    4.6319319426
O        2.3541332366   -0.5472845747    4.8298364276
H        2.0881514859   -0.6791129178    5.7514194364
H        3.6787827046   -1.4750822108    2.7669420415
H        4.0284889337   -1.4467074854    0.3145410630
15   

H        2.1067586650   -0.9837343938   -1.2155328094
C        1.9581488585   -1.0062314894   -0.1394204079
C        3.0296469107   -1.2973336358    0.7117965555
C        2.8360211088   -1.3272371152    2.0988945858
C        1.5870224546   -1.0499659896    2.6422061447
C        0.5058384141   -0.7862552372    1.7866920669
C        0.6923813449   -0.7543644409    0.3996199499
H       -0.1466354250   -0.5407647719   -0.2565031724
H       -0.4808956845   -0.6098538325    2.2079200429
C        1.3771912808   -1.1498826846    4.1105338262
O        0.5893811345   -1.8830960933    4.6473983084
O        2.2370566283   -0.3838099620    4.8190275554
H        2.0116240135   -0.5557808519    5.7446684670
H        3.6699107163   -1.5622609079    2.7556354918
H        4.0120814995   -1.5040915919    0.2969651221
15   

H        2.0896327736   -0.9507973555   -1.2157594847
C        1.9514566509   -0.9933203665   -0.1388611513
C        3.0217368240   -1.3390518235    0.6934669600
C        2.8415329041   -1.3943200049    2.0815640886
C        1.6068408550   -1.0943136274    2.6431597313
C        0.5275817716   -0.7671176464    1.8080125345
C        0.7008671497   -0.7096805379    0.4199554824
H       -0.1361631211   -0.4497554694   -0.2218173241
H       -0.4463828865   -0.5603790883    2.2442917879
C        1.4183718898   -1.2028539988    4.1181781231
O        0.8236936331   -2.0837055336    4.6786978889
O        2.0538754635   -0.2230826707    4.7977098461
H        1.8716572735   -0.4128178818    5.7292542529
H        3.6732220092   -1.6688499402    2.7254210420
H        3.9926307332   -1.5674593575    0.2631027701
15   

H        2.0780868467   -0.9098249260   -1.2148586176
C        1.9525835084   -0.9734707447   -0.1374505141
C        3.0178275742   -1.3854872152    0.6707002838
C        2.8537545594   -1.4680159714    2.0594546257
C        1.6377601395   -1.1415041076    2.6452017903
C        0.5679591420   -0.7298469246    1.8353317978
C        0.7247766784   -0.6452633341    0.4467129132
H       -0.1065118924   -0.3263711242   -0.1756232657
H       -0.3858865433   -0.4777537245    2.2914383325
C        1.4730089987   -1.2405544486    4.1258747246
O        1.1012532053   -2.2147593928    4.7218263265
O        1.7928661091   -0.0917309801    4.7602209368
H        1.6470277954   -0.2803551332    5.6983165662
H        3.6824125459   -1.7907054375    2.6845548221
H        3.9726394198   -1.6427917460    0.2210765854
15   

H        2.0619300869   -0.8790493649   -1.2142884099
C        1.9514689322   -0.9557137319   -0.1360818935
C        3.0114372676   -1.4250709352    0.6471003867
C        2.8664447572   -1.5247666222    2.0368281587
C        1.6710777304   -1.1693990617    2.6487218174
C        0.6126024115   -0.6836219454    1.8642054550
C        0.7500734673   -0.5820557834    0.4747114176
H       -0.0749028879   -0.2118186943   -0.1272487055
H       -0.3175967391   -0.3865709282    2.3416221006
C        1.5383119488   -1.2544280516    4.1318157707
O        1.4097146879   -2.2666544531    4.7662480239
O        1.5123007290   -0.0369476068    4.7172106781
H        1.4075072187   -0.2213765860    5.6616544779
H        3.6920747360   -1.8895829050    2.6426977142
H        3.9478265769   -1.7126184616    0.1774794451
15   

H        2.0487281627   -0.8846211210   -1.2172488941
C        1.9501732255   -0.9588596184   -0.1377204792
C        3.0022849644   -1.4686811944    0.6303329441
C        2.8726607065   -1.5653425127    2.0217252364
C        1.6979208442   -1.1710126480    2.6518016138
C        0.6503152053   -0.6382454305    1.8810806682
C        0.7728984833   -0.5398083212    0.4900044989
H       -0.0447276420   -0.1354385947   -0.0998981574
H       -0.2602933518   -0.3018335467    2.3702924341
C        1.5964290045   -1.2427548451    4.1339544843
O        1.7085418184   -2.2410864406    4.7950790157
O        1.2701425995   -0.0543671998    4.6902017700
H        1.2142088564   -0.2364196560    5.6393666485
H        3.6927049641   -1.9612305297    2.6159929578
H        3.9210358055   -1.7898442055    0.1478197984
15   

H        2.0333482483   -0.9131398470   -1.2227800082
C        1.9445723538   -0.9746810805   -0.1416053900
C        2.9880041439   -1.5117232602    0.6193108929
C        2.8713850995   -1.5919213787    2.0127836059
C        1.7174240984   -1.1528007744    2.6543384806
C        0.6776825514   -0.5944717437    1.8881686790
C        0.7885130904   -0.5127326161    0.4950170207
H       -0.0224194523   -0.0880491436   -0.0898372285
H       -0.2191297021   -0.2253041224    2.3794632499
C        1.6441545613   -1.2154775829    4.1344176728
O        1.9849076384   -2.1537229375    4.8074671940
O        1.0718748161   -0.1194488809    4.6837195219
H        1.0708127306   -0.2971126810    5.6354745993
H        3.6854929317   -2.0098007269    2.6006347377
H        3.8902879443   -1.8671373747    0.1297716584
15   

H        2.0177215007   -0.9530386469   -1.2296520985
C        1.9381291437   -0.9963333387   -0.1468787798
C        2.9725888552   -1.5530641012    0.6115626684
C        2.8683765349   -1.6096800419    2.0070876944
C        1.7361895746   -1.1234446828    2.6558132027
C        0.7023971056   -0.5507017902    1.8890972653
C        0.8022461067   -0.4928421936    0.4939286956
H       -0.0027080022   -0.0551391430   -0.0896011262
H       -0.1835729160   -0.1515383775    2.3766152498
C        1.6838699788   -1.1792633719    4.1339537702
O        2.2303402313   -2.0124054923    4.8120087637
O        0.9059726148   -0.2185083483    4.6851733933
H        0.9568716502   -0.3830069520    5.6380261262
H        3.6777040682   -2.0441232048    2.5899185235
H        3.8587785167   -1.9425880028    0.1185777769
15   

H        1.9967623303   -0.9985489071   -1.2355066792
C        1.9271955360   -1.0218994832   -0.1514282939
C        2.9532645880   -1.5945607042    0.6058808575
C        2.8626774277   -1.6251127168    2.0031200482
C        1.7537231703   -1.0925346466    2.6572694761
C        0.7245635691   -0.5100195865    1.8889142608
C        0.8119452553   -0.4783032707    0.4920856474
H        0.0122840456   -0.0302803087   -0.0909041111
H       -0.1498626451   -0.0810753738    2.3718313706
C        1.7167859944   -1.1395533839    4.1348693982
O        2.4373567390   -1.8226228019    4.8195694351
O        0.7649311439   -0.3497072733    4.6851519002
H        0.8588007254   -0.4876085364    5.6390228240
H        3.6683853265   -2.0734523925    2.5805920330
H        3.8229864380   -2.0170559223    0.1107122925
15   

H        1.9716838229   -1.0475018213   -1.2388639917
C        1.9132133702   -1.0499014672   -0.1538816152
C        2.9316319768   -1.6363231627    0.6029275432
C        2.8559176633   -1.6392787990    2.0013721641
C        1.7711758701   -1.0614683951    2.6583320889
C        0.7462428435   -0.4710201583    1.8892632683
C        0.8193502706   -0.4666598872    0.4912754772
H        0.0247347259   -0.0093774230   -0.0914311610
H       -0.1134979894   -0.0118416393    2.3706635478
C        1.7452535820   -1.0947464362    4.1362315885
O        2.6010901807   -1.5895811598    4.8276185173
O        0.6531705499   -0.5093032308    4.6816360783
H        0.7779856506   -0.6089904096    5.6367401841
H        3.6566943126   -2.0997823992    2.5761517978
H        3.7841533822   -2.0910886367    0.1064277910
15   

H        1.9428082893   -1.0963257844   -1.2386207490
C        1.8962408557   -1.0779958158   -0.1532147319
C        2.9074102482   -1.6776606943    0.6032335753
C        2.8472829559   -1.6530115717    2.0022310415
C        1.7877701653   -1.0308317694    2.6592356365
C        0.7669194409   -0.4332575389    1.8913605374
C        0.8243409485   -0.4558363038    0.4928024670
H        0.0346411941    0.0102407621   -0.0896116034
H       -0.0752432280    0.0541578729    2.3761404091
C        1.7680236527   -1.0466950957    4.1378279895
O        2.7114770644   -1.3258307833    4.8353945750
O        0.5776514814   -0.6891162588    4.6743416100
H        0.7186256307   -0.7416485986    5.6309317211
H        3.6406252509   -2.1237622589    2.5789886710
H        3.7419411384   -2.1639322940    0.1060330697
15   

H        1.9153642357   -1.1385416196   -1.2355605084
C        1.8803415329   -1.1010624357   -0.1502144100
C        2.8824905689   -1.7163503194    0.6063618028
C        2.8371716160   -1.6662333475    2.0052864486
C        1.8045831785   -0.9994947031    2.6597614547
C        0.7894773699   -0.3928856724    1.8941242550
C        0.8314072766   -0.4399931721    0.4956123095
H        0.0476219881    0.0360745140   -0.0866954381
H       -0.0337940603    0.1199070395    2.3852615896
C        1.7840533419   -0.9976994261    4.1397371598
O        2.7616547916   -1.0494982360    4.8426783265
O        0.5419984251   -0.8781428154    4.6641638936
H        0.6825569837   -0.8801509140    5.6221921239
H        3.6205535448   -2.1476981634    2.5866194628
H        3.6978778140   -2.2341901797    0.1092897635
15   

H        1.8897886016   -1.1733116045   -1.2310667871
C        1.8653335554   -1.1182843192   -0.1461792412
C        2.8555596122   -1.7517523388    0.6116652829
C        2.8236111673   -1.6785019759    2.0100256110
C        1.8194261163   -0.9679417384    2.6602269800
C        0.8133160090   -0.3486615614    1.8959988791
C        0.8408644816   -0.4178541433    0.4980397501
H        0.0649308991    0.0702588506   -0.0847937722
H        0.0095145342    0.1890701931    2.3926628069
C        1.7934632355   -0.9448832003    4.1430370010
O        2.7502839752   -0.7666230362    4.8516483970
O        0.5468180310   -1.0710145015    4.6534115539
H        0.6708105328   -1.0220408365    5.6123853387
H        3.5954064874   -2.1730652430    2.5954338591
H        3.6506069388   -2.3015119547    0.1159354913
15   

H        1.8737394842   -1.2017560465   -1.2273502477
C        1.8548441361   -1.1316264555   -0.1432234863
C        2.8264986913   -1.7872613753    0.6201856203
C        2.8015836751   -1.6941567534    2.0176222523
C        1.8244835839   -0.9416422295    2.6591073548
C        0.8359084400   -0.3018934677    1.8917938464
C        0.8555569684   -0.3900062436    0.4947757698
H        0.0933598983    0.1148181466   -0.0919272744
H        0.0524911801    0.2650287053    2.3883476698
C        1.7910699962   -0.8900048866    4.1451899715
O        2.6770102737   -0.4859195492    4.8509845332
O        0.5974156962   -1.2735574737    4.6513677064
H        0.6959095741   -1.1757381199    5.6094470258
H        3.5577835363   -2.2057506369    2.6082045913
H        3.6011895983   -2.3695058924    0.1293566850
15   

H        1.8759942315   -1.2160236942   -1.2250215948
C        1.8528324757   -1.1344744119   -0.1417757185
C        2.7940655951   -1.8190166659    0.6345525936
C        2.7635605273   -1.7112254378    2.0308891714
C        1.8088804705   -0.9196584023    2.6566764989
C        0.8545996285   -0.2450485747    1.8781747165
C        0.8795040081   -0.3474882065    0.4821827600
H        0.1425633615    0.1822969506   -0.1146954900
H        0.0943203194    0.3599500562    2.3653999745
C        1.7699864762   -0.8345619914    4.1451889787
O        2.5399579867   -0.2183024690    4.8314923067
O        0.7111689820   -1.4888467561    4.6709640108
H        0.7857292375   -1.3482304560    5.6257611846
H        3.4961621592   -2.2446379422    2.6313886726
H        3.5494041353   -2.4346844543    0.1544805029
15   

H        1.9106466079   -1.2132795276   -1.2245241055
C        1.8684755068   -1.1259016531   -0.1423056392
C        2.7633789388   -1.8466281658    0.6560121841
C        2.7082077333   -1.7317931572    2.0510529156
C        1.7676188039   -0.9061614372    2.6526979286
C        0.8706339763   -0.1813077324    1.8528038319
C        0.9201931890   -0.2911092976    0.4579934410
H        0.2238369159    0.2723221674   -0.1565536878
H        0.1363160694    0.4686378993    2.3215827080
C        1.7235761227   -0.7864501195    4.1403386036
O        2.3327034541    0.0170083868    4.7929140153
O        0.9060190011   -1.6989713003    4.7090252548
H        0.9623962099   -1.5211176751    5.6587941708
H        3.4062956563   -2.2911159678    2.6686159113
H        3.5024428573   -2.4949347121    0.1939343798
15   

H        1.9514646590   -1.2011995945   -1.2237351970
C        1.8846900476   -1.1143215504   -0.1427152041
C        2.7255967373   -1.8757491578    0.6763720497
C        2.6387926198   -1.7617487095    2.0698606993
C        1.7112838138   -0.9050314319    2.6491887415
C        0.8813308959   -0.1260151257    1.8284330252
C        0.9626090292   -0.2353229687    0.4350648471
H        0.3135594510    0.3652816041   -0.1958565761
H        0.1751523026    0.5660344872    2.2801704524
C        1.6627618949   -0.7599451383    4.1322855712
O        2.0749866191    0.1840223909    4.7509295601
O        1.1553108009   -1.8515608877    4.7458395271
H        1.1933938747   -1.6420425681    5.6901009605
H        3.2972821203   -2.3501701716    2.7037195091
H        3.4482950196   -2.5539637060    0.2316805348
15   

H        1.9884387638   -1.1981665647   -1.2223627756
C        1.8991897472   -1.1130836587   -0.1428237968
C        2.6940577253   -1.9055252319    0.6924247527
C        2.5786775198   -1.7936236373    2.0840394834
C        1.6632464380   -0.9118247996    2.6466060274
C        0.8864809572   -0.0964132513    1.8086645340
C        0.9964013943   -0.2033860433    0.4171694169
H        0.3858386570    0.4242431164   -0.2257662637
H        0.1995393910    0.6233049819    2.2471979897
C        1.5962172013   -0.7529411735    4.1231769655
O        1.7812278409    0.2768966197    4.7161987547
O        1.3883433280   -1.9219420982    4.7700343661
H        1.3885111265   -1.6850560663    5.7086982696
H        3.2045984236   -2.4055511288    2.7287754358
H        3.4041943398   -2.6057713163    0.2618749816
15   

H        2.0149315583   -1.1944359927   -1.2224247749
C        1.9110674161   -1.1123789301   -0.1439589490
C        2.6681612613   -1.9321750927    0.6994125421
C        2.5343907127   -1.8244161650    2.0897965145
C        1.6372851376   -0.9181310888    2.6452160037
C        0.8985796452   -0.0768995444    1.7970061003
C        1.0272174265   -0.1795075243    0.4069586029
H        0.4454682512    0.4694567658   -0.2415052421
H        0.2252789037    0.6605290381    2.2278617900
C        1.5411137294   -0.7595713251    4.1160844188
O        1.4896788121    0.2955801061    4.6937603843
O        1.5887097362   -1.9344690526    4.7856506790
H        1.5334174050   -1.6844641663    5.7193961250
H        3.1353329942   -2.4599817084    2.7355714652
H        3.3639672733   -2.6510263734    0.2761816629
15   

H        2.0401967166   -1.1866166367   -1.2236655098
C        1.9256941415   -1.1083636838   -0.1459942805
C        2.6489176390   -1.9537232496    0.7011597344
C        2.5017324774   -1.8517468180    2.0907549812
C        1.6270710150   -0.9213588956    2.6441673895
C        0.9177714440   -0.0597306312    1.7893952718
C        1.0602964726   -0.1566432004    0.4005045103
H        0.5019778509    0.5104156680   -0.2502097347
H        0.2537898564    0.6897961928    2.2143288605
C        1.4956788248   -0.7734899047    4.1107672385
O        1.2113706235    0.2520767369    4.6764130352
O        1.7686295077   -1.9065717063    4.7996537871
H        1.6502146936   -1.6594047267    5.7283731447
H        3.0806724235   -2.5125273177    2.7312405517
H        3.3291005499   -2.6893796279    0.2814062303
15   

H        2.0648546558   -1.1740151797   -1.2244974867
C        1.9406967266   -1.1009767266   -0.1475280341
C        2.6308866855   -1.9717979992    0.7007474121
C        2.4713770199   -1.8775965807    2.0896518253
C        1.6211151905   -0.9241232014    2.6435138155
C        0.9377966828   -0.0436201207    1.7849997396
C        1.0931463651   -0.1330593406    0.3971575363
H        0.5565642611    0.5511417640   -0.2540590630
H        0.2815477057    0.7154938361    2.2051743221
C        1.4546560578   -0.7934231178    4.1070663019
O        0.9511230189    0.1524037904    4.6606374231
O        1.9392652300   -1.8416822942    4.8143220296
H        1.7607591880   -1.6121200350    5.7380122279
H        3.0265197614   -2.5652936931    2.7226411380
H        3.2946105891   -2.7230502613    0.2822494024
15   

H        2.1248479552   -1.0886096539   -1.2217068599
C        1.9689205420   -1.0630878863   -0.1466950772
C        3.0551203966   -1.1833803406    0.7247592610
C        2.8547364967   -1.1505359610    2.1112145931
C        1.5758198306   -0.9981885517    2.6410089043
C        0.4868535512   -0.8776673115    1.7576335715
C        0.6811191717   -0.9097913026    0.3722463074
H       -0.1692853203   -0.8155214612   -0.2971323619
H       -0.5184873161   -0.7580303368    2.1557491092
C        1.3386134267   -0.9604966406    4.0999134626
O        0.2563915372   -0.8311031359    4.6169866066
O        2.4596394806   -1.0856136462    4.8494203487
H        2.1436198328   -1.0425286277    5.7637993757
H        3.7224386979   -1.2469562513    2.7588657587
H        4.0585607913   -1.3027877209    0.3261256874
