15   

H        1.8844938981   -1.1974164784   -1.1372586570
C        1.8989342608   -1.1491096909   -0.0516465332
C        2.9606390717   -1.7132758415    0.6606496599
C        2.9827137623   -1.6488073288    2.0589101281
C        1.9377031471   -1.0273763978    2.7676380313
C        0.8787669783   -0.4514123562    2.0340833657
C        0.8609411839   -0.5150125623    0.6357978912
H        0.0425737488   -0.0641694826    0.0808484765
H        0.0688493132    0.0724070191    2.5336851288
C        1.9680883683   -0.9741836753    4.2380957310
O        2.9986688411   -1.1458666493    4.8281181973
O        0.8176975165   -0.7689074310    4.9117198680
H        0.0392111191   -0.8750488027    4.3499162352
H        3.8160686985   -2.0885440930    2.6033594159
H        3.7727420285   -2.2015647536    0.1292355958
15   

H        1.8836851029   -1.2630029663   -1.1392458198
C        1.8975238256   -1.2018945770   -0.0542867775
C        2.9496738419   -1.7733214418    0.6666848121
C        2.9716438950   -1.6911666591    2.0642098481
C        1.9362487887   -1.0429458964    2.7629973949
C        0.8870071028   -0.4610362822    2.0206387788
C        0.8686003715   -0.5432240852    0.6235237036
H        0.0576366411   -0.0865664654    0.0625013523
H        0.0863571072    0.0823182417    2.5150120329
C        1.9669687079   -0.9570535557    4.2318023284
O        2.9799005709   -1.1865343014    4.8318113293
O        0.8201727735   -0.6788308861    4.8963827097
H        0.0378198781   -0.9607343381    4.4072733019
H        3.7987938591   -2.1346255594    2.6149746271
H        3.7551830026   -2.2796877035    0.1422551718
15   

H        1.8958597152   -1.3125144287   -1.1453672948
C        1.9057502900   -1.2419801591   -0.0609629545
C        2.9499906574   -1.8156546911    0.6699205819
C        2.9671871575   -1.7205119325    2.0668754838
C        1.9351450390   -1.0554333525    2.7547945870
C        0.8935624912   -0.4730701985    2.0023514148
C        0.8794385323   -0.5687260403    0.6062298207
H        0.0740255867   -0.1107411796    0.0383720677
H        0.0955346193    0.0802622827    2.4903463715
C        1.9609905227   -0.9456727612    4.2222483695
O        2.9519553600   -1.2277853219    4.8353878664
O        0.8187513595   -0.5924102168    4.8733903761
H        0.0425735843   -1.0278828458    4.5047395272
H        3.7891231822   -2.1644697216    2.6248721050
H        3.7535409206   -2.3330099460    0.1533484091
15   

H        1.9219770785   -1.3338997936   -1.1566112045
C        1.9244011662   -1.2605610183   -0.0723837135
C        2.9607618842   -1.8366109633    0.6679739948
C        2.9681707425   -1.7376134486    2.0649082271
C        1.9345593011   -1.0648668053    2.7430500519
C        0.9004998947   -0.4818423479    1.9810004152
C        0.8957349153   -0.5817042032    0.5852594014
H        0.0953872147   -0.1228631711    0.0110264922
H        0.0999328985    0.0732094189    2.4631318397
C        1.9493342915   -0.9460609383    4.2102323805
O        2.9158055587   -1.2749738308    4.8379288803
O        0.8161862423   -0.5120029357    4.8460307092
H        0.0570692655   -1.0667189309    4.6424410287
H        3.7844041109   -2.1829950391    2.6299471287
H        3.7659095228   -2.3585154601    0.1586061938
15   

H        1.9614674977   -1.3224322007   -1.1733845363
C        1.9526764548   -1.2536149912   -0.0889327838
C        2.9803904112   -1.8339488464    0.6601889940
C        2.9726578771   -1.7413168868    2.0576727461
C        1.9329519337   -1.0694435512    2.7274523021
C        0.9072873452   -0.4834491104    1.9565352317
C        0.9172697854   -0.5772490213    0.5605012041
H        0.1222382536   -0.1165822280   -0.0195439091
H        0.0997745429    0.0659300368    2.4336883856
C        1.9291469593   -0.9584922434    4.1957048625
O        2.8728577852   -1.3252648400    4.8365564315
O        0.8133844471   -0.4410311361    4.8144917730
H        0.0849205742   -1.0676986832    4.8165559905
H        3.7819625825   -2.1905985858    2.6293885224
H        3.7902817102   -2.3545965362    0.1571910749
15   

H        2.0124669909   -1.2864539937   -1.1912271725
C        1.9887864376   -1.2287722486   -0.1063872403
C        3.0061249853   -1.8165193947    0.6511118791
C        2.9781782591   -1.7393795861    2.0493691341
C        1.9290796035   -1.0744287479    2.7116014023
C        0.9136955042   -0.4819024846    1.9320994864
C        0.9434587034   -0.5606415126    0.5354811344
H        0.1548934278   -0.0960712028   -0.0501666711
H        0.0962602517    0.0568992028    2.4044465372
C        1.8997871122   -0.9847514010    4.1816005266
O        2.8238530391   -1.3846174627    4.8327035659
O        0.8135777641   -0.3840208727    4.7813433930
H        0.1343895329   -1.0226726858    5.0130015120
H        3.7788356623   -2.1957260321    2.6274547074
H        3.8231074267   -2.3317157950    0.1541019006
15   

H        2.0645138785   -1.2497735486   -1.2060707251
C        2.0244692251   -1.2045251741   -0.1211555752
C        3.0313997836   -1.7988496177    0.6450788937
C        2.9814400124   -1.7388603225    2.0436464819
C        1.9210714261   -1.0834115862    2.6976822403
C        0.9160119396   -0.4850712084    1.9090842440
C        0.9674127140   -0.5470970978    0.5123176213
H        0.1854333250   -0.0791739996   -0.0793919608
H        0.0874446659    0.0417498834    2.3755824531
C        1.8644648008   -1.0160943889    4.1688027370
O        2.7728100942   -1.4446641856    4.8270544181
O        0.8118864082   -0.3497796604    4.7476219735
H        0.2118289264   -0.9483311713    5.2015783603
H        3.7735262648   -2.2016468528    2.6282140386
H        3.8568935317   -2.3066676165    0.1546779263
15   

H        2.1054540400   -1.2293029401   -1.2160889256
C        2.0505413808   -1.1935887555   -0.1314942738
C        3.0484516530   -1.7918462582    0.6434470540
C        2.9786961782   -1.7449453469    2.0417405091
C        1.9079318272   -1.0974785247    2.6870002096
C        0.9117432333   -0.4959996554    1.8893556439
C        0.9825166690   -0.5455113939    0.4929977997
H        0.2062883736   -0.0760358758   -0.1049748156
H        0.0733064860    0.0209196997    2.3493630653
C        1.8283881370   -1.0446122746    4.1582436765
O        2.7179718929   -1.5063816611    4.8231421996
O        0.8069430448   -0.3321011349    4.7179690519
H        0.3143682362   -0.8555188143    5.3592646619
H        3.7635726749   -2.2116222596    2.6327608681
H        3.8820129927   -2.2930757504    0.1600400552
15   

H        2.1394944455   -1.2160342972   -1.2221951803
C        2.0722258203   -1.1858773583   -0.1381438330
C        3.0670481663   -1.7782086468    0.6453543346
C        2.9811049916   -1.7386470184    2.0430449040
C        1.8969681148   -1.1044802142    2.6790749713
C        0.9035499719   -0.5098698989    1.8727668957
C        0.9906862590   -0.5516288513    0.4771412642
H        0.2160820905   -0.0875676809   -0.1271102820
H        0.0537445239   -0.0056883789    2.3261889647
C        1.7990648920   -1.0595077510    4.1496555281
O        2.6824298442   -1.5240885205    4.8235997111
O        0.7732368745   -0.3583201056    4.6950982431
H        0.4261107457   -0.8002211738    5.4800723659
H        3.7633090514   -2.2011816795    2.6407210113
H        3.9105094213   -2.2694945716    0.1690194579
15   

H        2.1597485978   -1.2033773278   -1.2262395101
C        2.0832551620   -1.1788060891   -0.1426678000
C        3.0755035935   -1.7680890188    0.6464290451
C        2.9774368820   -1.7359608260    2.0435416258
C        1.8837114808   -1.1121643946    2.6732722098
C        0.8925920316   -0.5213302464    1.8614179957
C        0.9918712449   -0.5555134940    0.4664149996
H        0.2186313426   -0.0946580726   -0.1420061703
H        0.0346059016   -0.0271782581    2.3106038332
C        1.7732870249   -1.0739648113    4.1431193128
O        2.6438235577   -1.5544947917    4.8245015410
O        0.7398915337   -0.3917709077    4.6809002893
H        0.5372040601   -0.7272520831    5.5655056809
H        3.7573418852   -2.1965290509    2.6456598923
H        3.9261347269   -2.2515395706    0.1748759971
15   

H        2.1789434186   -1.1891612404   -1.2286856950
C        2.0951962642   -1.1693580655   -0.1455579705
C        3.0879532923   -1.7519799696    0.6479101509
C        2.9803063806   -1.7262447024    2.0444750489
C        1.8762493331   -1.1158341799    2.6690326769
C        0.8843685626   -0.5322697666    1.8529575442
C        0.9934319767   -0.5596092243    0.4585595313
H        0.2193023501   -0.1046344400   -0.1531421133
H        0.0177624709   -0.0501244855    2.2987511633
C        1.7556122556   -1.0841983111    4.1380086188
O        2.6168413565   -1.5725990153    4.8267423208
O        0.6983528723   -0.4453050078    4.6712337923
H        0.6316876847   -0.6531752277    5.6154516743
H        3.7600859621   -2.1822076501    2.6502158865
H        3.9460949901   -2.2257180879    0.1801389772
15   

H        2.1947094561   -1.1718835878   -1.2287384987
C        2.1059432879   -1.1574054882   -0.1459279902
C        3.1015683620   -1.7322139892    0.6496835226
C        2.9872630727   -1.7136296085    2.0458506905
C        1.8733528827   -1.1187092319    2.6677265070
C        0.8783352440   -0.5435166272    1.8495569496
C        0.9943546208   -0.5631266966    0.4556078956
H        0.2175712174   -0.1149025074   -0.1577147010
H        0.0034069926   -0.0748171004    2.2934742612
C        1.7453914501   -1.0948628721    4.1361247707
O        2.6008503096   -1.5892390423    4.8282279659
O        0.6573532767   -0.5109993448    4.6661296362
H        0.6999540803   -0.5653297355    5.6333404788
H        3.7687563550   -2.1642673971    2.6533532648
H        3.9667853503   -2.1948489829    0.1838447365
15   

H        2.2009549578   -1.1492678752   -1.2274152665
C        2.1103642960   -1.1418665009   -0.1446826242
C        3.1111847926   -1.7098752391    0.6492511409
C        2.9943867529   -1.7007236841    2.0452877144
C        1.8725075282   -1.1226110399    2.6688164272
C        0.8719669142   -0.5547404825    1.8522411673
C        0.9908166345   -0.5643452795    0.4584080999
H        0.2096518682   -0.1221200412   -0.1536998001
H       -0.0099827923   -0.1004012200    2.2971487040
C        1.7418442730   -1.1091455964    4.1372136933
O        2.5956126918   -1.6110677238    4.8255151724
O        0.6233657383   -0.5811850372    4.6669061589
H        0.7381070498   -0.4603452269    5.6215966941
H        3.7795611993   -2.1469098007    2.6513400286
H        3.9821039392   -2.1604576345    0.1822177408
15   

H        2.2026701352   -1.1255922589   -1.2237607805
C        2.1119082963   -1.1268784736   -0.1410127575
C        3.1182172844   -1.6906791042    0.6488962272
C        3.0011137718   -1.6930498001    2.0449098395
C        1.8732814551   -1.1310641076    2.6726711148
C        0.8668764247   -0.5679323036    1.8599340232
C        0.9863065594   -0.5655976469    0.4660942715
H        0.2005487433   -0.1274286929   -0.1430498962
H       -0.0207228694   -0.1274471893    2.3074099226
C        1.7424952170   -1.1297652323    4.1413428617
O        2.5948125588   -1.6433128635    4.8216728059
O        0.5999815756   -0.6453155250    4.6728259354
H        0.7516274357   -0.3386777537    5.5778857632
H        3.7903544603   -2.1366987018    2.6475673668
H        3.9934485253   -2.1295477386    0.1787636494
15   

H        2.2024602371   -1.1019379615   -1.2185605990
C        2.1118820369   -1.1140198239   -0.1358549820
C        3.1222811390   -1.6781192922    0.6485446232
C        3.0053418158   -1.6947252165    2.0444456800
C        1.8736961004   -1.1466537354    2.6777307579
C        0.8627341843   -0.5838399122    1.8704077318
C        0.9821104403   -0.5671774074    0.4766433831
H        0.1928104834   -0.1297508549   -0.1284581977
H       -0.0290879225   -0.1558010834    2.3214022732
C        1.7438414781   -1.1595802722    4.1464666813
O        2.5896860048   -1.6921495693    4.8182448066
O        0.5891282398   -0.6919400859    4.6844710685
H        0.7563898927   -0.2017431636    5.4991409894
H        3.7975824572   -2.1390686253    2.6427030833
H        4.0004345959   -2.1065360086    0.1742142692
15   

H        2.1953457115   -1.0663958272   -1.2108997363
C        2.1066500467   -1.0919040523   -0.1282553454
C        3.1239459257   -1.6550282704    0.6478060125
C        3.0094265866   -1.6892496020    2.0435152660
C        1.8734176708   -1.1600227971    2.6850075664
C        0.8549287144   -0.5989595109    1.8860747399
C        0.9721453559   -0.5643057277    0.4923979780
H        0.1772261263   -0.1287043241   -0.1066543698
H       -0.0417773543   -0.1876394688    2.3427176551
C        1.7466703787   -1.1927006338    4.1535260743
O        2.5937320746   -1.7315294789    4.8159687824
O        0.5843146081   -0.7355471359    4.7051185344
H        0.7467312763   -0.0720023406    5.3842247046
H        3.8067811695   -2.1333117799    2.6352567375
H        4.0054178387   -2.0694313256    0.1671655883
15   

H        2.1905442045   -1.0213879817   -1.1987933010
C        2.1017140293   -1.0645498002   -0.1166943507
C        3.1207388011   -1.6369532416    0.6502403676
C        3.0057114615   -1.6948809095    2.0450519010
C        1.8682597392   -1.1791275170    2.6946357377
C        0.8474406314   -0.6093510722    1.9051259561
C        0.9649098539   -0.5516460559    0.5121732278
H        0.1680611426   -0.1106726508   -0.0803962810
H       -0.0525486961   -0.2119664514    2.3674996862
C        1.7415377547   -1.2388741136    4.1617086621
O        2.5707483659   -1.8108536126    4.8153960276
O        0.6010843426   -0.7318112742    4.7354542568
H        0.7746778590    0.0717176422    5.2340679807
H        3.8038028334   -2.1467820201    2.6299679328
H        4.0036679328   -2.0406828279    0.1631564693
15   

H        2.1933731461   -0.9585885459   -1.1807870968
C        2.1027666461   -1.0221967740   -0.0998106522
C        3.1220178345   -1.6064783601    0.6577983445
C        3.0042468398   -1.6921271218    2.0508701635
C        1.8645581991   -1.1913518861    2.7078733124
C        0.8429025809   -0.6101906803    1.9280100746
C        0.9629501161   -0.5253074201    0.5366036079
H        0.1652599172   -0.0772736677   -0.0495705948
H       -0.0614299402   -0.2288726255    2.3953415222
C        1.7335388424   -1.2860344471    4.1719997394
O        2.5470548902   -1.8862473052    4.8167177345
O        0.6300298214   -0.7166576198    4.7707461311
H        0.8013009899    0.1859379278    5.0515046476
H        3.8016401308   -2.1543895076    2.6287669710
H        4.0068186069   -1.9987680531    0.1647030646
15   

H        2.1960990679   -0.8972109284   -1.1598425070
C        2.1040362510   -0.9793078851   -0.0801975601
C        3.1227888411   -1.5758824665    0.6684069404
C        3.0027310950   -1.6868184926    2.0594068006
C        1.8619946127   -1.1980437817    2.7233544394
C        0.8401371884   -0.6051495722    1.9526570510
C        0.9623439534   -0.4955643332    0.5631011451
H        0.1643476584   -0.0402705916   -0.0171150979
H       -0.0679754397   -0.2380881178    2.4240027751
C        1.7266404034   -1.3255009760    4.1840133022
O        2.5229630600   -1.9593881536    4.8163580767
O        0.6772146513   -0.6878127990    4.8066287795
H        0.8182109921    0.2612737249    4.8588856084
H        3.7989430832   -2.1598283372    2.6303667346
H        4.0085784088   -1.9589790834    0.1697901996
15   

H        2.1842746939   -0.8585610329   -1.1414697302
C        2.0943813034   -0.9525290668   -0.0625707993
C        3.1143709600   -1.5582459000    0.6768442640
C        2.9970287632   -1.6853343253    2.0665780799
C        1.8585737772   -1.2025977667    2.7386665058
C        0.8344995746   -0.6014796413    1.9771902491
C        0.9539523143   -0.4762221296    0.5886191789
H        0.1545001798   -0.0157602215    0.0144362083
H       -0.0748415854   -0.2435600843    2.4530395747
C        1.7265273604   -1.3498802070    4.1973750642
O        2.5033872645   -2.0224477502    4.8141403649
O        0.7378355067   -0.6540096401    4.8415042669
H        0.8071218129    0.2927487769    4.6857321843
H        3.7938282676   -2.1659349772    2.6304966797
H        3.9988684600   -1.9363434762    0.1720581996
15   

H        2.1519572469   -0.8483946387   -1.1305821957
C        2.0684098036   -0.9471965558   -0.0515716813
C        3.0908384673   -1.5603993269    0.6780536587
C        2.9819707418   -1.6937207707    2.0677313522
C        1.8505796104   -1.2086915066    2.7499145237
C        0.8228047848   -0.6013057662    1.9982674776
C        0.9337232296   -0.4703492427    0.6093641172
H        0.1321294251   -0.0054438335    0.0417261041
H       -0.0838801844   -0.2448918302    2.4799892202
C        1.7320711998   -1.3605416134    4.2090352845
O        2.4827789562   -2.0780719343    4.8083070248
O        0.8064597221   -0.6146808271    4.8726823357
H        0.7703691066    0.2911116053    4.5467541279
H        3.7807885304   -2.1795749405    2.6243941218
H        3.9708265514   -1.9392270241    0.1658946557
15   

H        2.1034408764   -0.8647412712   -1.1265598940
C        2.0299530273   -0.9618936130   -0.0466419217
C        3.0549682525   -1.5824960981    0.6727638675
C        2.9596112566   -1.7129715748    2.0635159994
C        1.8403895500   -1.2166689483    2.7574639149
C        0.8086405175   -0.6030581823    2.0161145052
C        0.9059155978   -0.4755973911    0.6256773453
H        0.1022984200   -0.0056262170    0.0650785968
H       -0.0911800978   -0.2394300443    2.5047625581
C        1.7446223341   -1.3600076061    4.2189671693
O        2.4629092781   -2.1234719283    4.8019672369
O        0.8796570551   -0.5710231832    4.8998162704
H        0.7137027303    0.2641688277    4.4462888539
H        3.7609835509   -2.2031467696    2.6127931860
H        3.9269233475   -1.9684430007    0.1521704127
15   

H        2.0483820114   -0.9004180967   -1.1277963203
C        1.9860182068   -0.9912998469   -0.0466177871
C        3.0102262933   -1.6234188776    0.6635158732
C        2.9298547502   -1.7446088458    2.0558625690
C        1.8278809514   -1.2264097917    2.7613001488
C        0.7957493941   -0.6018702897    2.0292908259
C        0.8776545717   -0.4847328466    0.6367624338
H        0.0748395891   -0.0057059042    0.0827092795
H       -0.0926433309   -0.2202694964    2.5243610138
C        1.7595309640   -1.3521489483    4.2260582469
O        2.4386431647   -2.1607922615    4.7957947108
O        0.9540667574   -0.5217591351    4.9195930511
H        0.6435555903    0.2202057428    4.3848023805
H        3.7315604811   -2.2417014309    2.5984865369
H        3.8706064699   -2.0242167867    0.1348901409
15   

H        1.9917977578   -0.9392949809   -1.1330649391
C        1.9428090774   -1.0198699284   -0.0503764337
C        2.9616871648   -1.6704031952    0.6501079096
C        2.8991547128   -1.7770410412    2.0443380106
C        1.8214304375   -1.2257578416    2.7626953295
C        0.7944335107   -0.5812704186    2.0399380358
C        0.8580599883   -0.4798273775    0.6450006612
H        0.0601729650    0.0153262344    0.0980749752
H       -0.0754952213   -0.1674584894    2.5406468626
C        1.7842871622   -1.3319355372    4.2312349782
O        2.4463606446   -2.1623385220    4.7902618717
O        1.0071228433   -0.4880721497    4.9361936299
H        0.5258446077    0.1308077647    4.3713537733
H        3.6984623151   -2.2865955775    2.5789397341
H        3.8049751288   -2.0954979828    0.1129562852
