15   

H        1.8845501859   -1.1969428141   -1.1372784132
C        1.8989896856   -1.1487039616   -0.0516632558
C        2.9606941699   -1.7129155629    0.6605965590
C        2.9827614014   -1.6485462879    2.0588609673
C        1.9377439826   -1.0271728539    2.7676298660
C        0.8788116345   -0.4511547793    2.0341132478
C        0.8609934818   -0.5146553256    0.6358223280
H        0.0426240375   -0.0637818945    0.0809007876
H        0.0688827770    0.0726118536    2.5337519765
C        1.9680883683   -0.9741836753    4.2380957310
O        2.9986688411   -1.1458666493    4.8281181973
O        0.8176975165   -0.7689074310    4.9117198680
H        0.0392111191   -0.8750488027    4.3499162352
H        3.8161069694   -2.0883348712    2.6032830124
H        3.7727971515   -2.2011723195    0.1291527437
15   

H        1.8838574023   -1.2620480938   -1.1393029398
C        1.8976848540   -1.2010762683   -0.0543360724
C        2.9498303927   -1.7725910905    0.6665708196
C        2.9717722396   -1.6906362112    2.0641067059
C        1.9363535433   -1.0425349410    2.7629711146
C        0.8871238304   -0.4605203820    2.0206801301
C        0.8687457615   -0.5425071596    0.6235513532
H        0.0577801552   -0.0857918174    0.0625791927
H        0.0864423664    0.0827229516    2.5151241088
C        1.9669687079   -0.9570535557    4.2318023284
O        2.9799005709   -1.1865343014    4.8318113293
O        0.8201727735   -0.6788308861    4.8963827097
H        0.0378198781   -0.9607343381    4.4072733019
H        3.7988991072   -2.1341971513    2.6148244461
H        3.7553461348   -2.2788901399    0.1420859654
15   

H        1.8962137347   -1.3110819526   -1.1454714111
C        1.9060716915   -1.2407515044   -0.0610535460
C        2.9502958443   -1.8145568206    0.6697486251
C        2.9674284976   -1.7197135837    2.0667229967
C        1.9353380932   -1.0548149747    2.7547447171
C        0.8937840329   -0.4722952606    2.0023864784
C        0.8797245941   -0.5676498518    0.6062416262
H        0.0743152923   -0.1095801060    0.0384478437
H        0.0956979227    0.0808676965    2.4904775305
C        1.9609905227   -0.9456727612    4.2222483695
O        2.9519553600   -1.2277853219    4.8353878664
O        0.8187513595   -0.5924102168    4.8733903761
H        0.0425735843   -1.0278828458    4.5047395272
H        3.7893208119   -2.1638246163    2.6246625616
H        3.7538643808   -2.3318114095    0.1531035287
15   

H        1.9225825754   -1.3320181767   -1.1567541676
C        1.9249407677   -1.2589450431   -0.0725086174
C        2.9612628393   -1.8351691032    0.6677658050
C        2.9685564085   -1.7365642444    2.0647266837
C        1.9348661154   -1.0640505121    2.7429804122
C        0.9008632687   -0.4808169994    1.9810175394
C        0.8962143258   -0.5802842082    0.5852458083
H        0.0958837730   -0.1213309474    0.0110794454
H        0.1002071609    0.0740125536    2.4632557001
C        1.9493342915   -0.9460609383    4.2102323805
O        2.9158055587   -1.2749738308    4.8379288803
O        0.8161862423   -0.5120029357    4.8460307092
H        0.0570692655   -1.0667189309    4.6424410287
H        3.7847167650   -2.1821512211    2.6297095576
H        3.7664442383   -2.3569452830    0.1583193757
15   

H        1.9623591020   -1.3202248108   -1.1735337300
C        1.9534610711   -1.2517160020   -0.0890633669
C        2.9811054018   -1.8322584908    0.6599906915
C        2.9731973557   -1.7400858680    2.0575024233
C        1.9333810296   -1.0684794854    2.7273796133
C        0.9078095781   -0.4822335695    1.9565328363
C        0.9179682132   -0.5755722901    0.5604673405
H        0.1229744304   -0.1147715700   -0.0195224325
H        0.1001780819    0.0668876353    2.4337810062
C        1.9291469593   -0.9584922434    4.1957048625
O        2.8728577852   -1.3252648400    4.8365564315
O        0.8133844471   -0.4410311361    4.8144917730
H        0.0849205742   -1.0676986832    4.8165559905
H        3.7823953375   -2.1896154896    2.6291745942
H        3.7910474250   -2.3527623248    0.1569251634
15   

H        2.0135778800   -1.2842103342   -1.1913346532
C        1.9897551389   -1.2268381968   -0.1064814744
C        3.0069954724   -1.8148010012    0.6509812086
C        2.9788251626   -1.7381263706    2.0492588275
C        1.9295942647   -1.0734408190    2.7115496330
C        0.9143350441   -0.4806532520    1.9320852517
C        0.9443223755   -0.5589257587    0.5354444329
H        0.1558153706   -0.0942176498   -0.0501720180
H        0.0967632770    0.0578888817    2.4044913329
C        1.8997871122   -0.9847514010    4.1816005266
O        2.8238530391   -1.3846174627    4.8327035659
O        0.8135777641   -0.3840208727    4.7813433930
H        0.1343895329   -1.0226726858    5.0130015120
H        3.7793507353   -2.1947320462    2.6273221842
H        3.8240419681   -2.3298580140    0.1539319185
15   

H        2.0656464782   -1.2478163038   -1.2061178943
C        2.0254509441   -1.2028348508   -0.1211972830
C        3.0322737832   -1.7973495317    0.6450307720
C        2.9820828512   -1.7377645837    2.0436072925
C        1.9215829145   -1.0825431040    2.6976598223
C        0.9166565177   -0.4839710510    1.9090680208
C        0.9682888573   -0.5455918169    0.5122917830
H        0.1863762696   -0.0775477511   -0.0794101687
H        0.0879574879    0.0426252871    2.3755856340
C        1.8644648008   -1.0160943889    4.1688027370
O        2.7728100942   -1.4446641856    4.8270544181
O        0.8118864082   -0.3497796604    4.7476219735
H        0.2118289264   -0.9483311713    5.2015783603
H        3.7740356777   -2.2007825961    2.6281720046
H        3.8578334479   -2.3050509287    0.1546201303
15   

H        2.1064430960   -1.2277834534   -1.2160938626
C        2.0513951920   -1.1922743288   -0.1314993778
C        3.0492074832   -1.7906795790    0.6434540987
C        2.9792482540   -1.7440914696    2.0417481702
C        1.9083706894   -1.0967996352    2.6869972735
C        0.9123011135   -0.4951398414    1.8893397255
C        0.9832785900   -0.5443383146    0.4929814520
H        0.2071125266   -0.0747694301   -0.1049985823
H        0.0737532277    0.0216050159    2.3493405783
C        1.8283881370   -1.0446122746    4.1582436765
O        2.7179718929   -1.5063816611    4.8231421996
O        0.8069430448   -0.3321011349    4.7179690519
H        0.3143682362   -0.8555188143    5.3592646619
H        3.7640091587   -2.2109505415    2.6327777715
H        3.8828271510   -2.2918209283    0.1600565084
15   

H        2.1402170590   -1.2149184179   -1.2221844609
C        2.0728492144   -1.1849117126   -0.1381351358
C        3.0675983996   -1.7773532303    0.6453726465
C        2.9815060564   -1.7380211337    2.0430607817
C        1.8972877268   -1.1039808718    2.6790793719
C        0.9039580798   -0.5092356533    1.8727610397
C        0.9912436805   -0.5507648761    0.4771381430
H        0.2166862934   -0.0866339335   -0.1271197793
H        0.0540727294   -0.0051806764    2.3261740380
C        1.7990648920   -1.0595077510    4.1496555281
O        2.6824298442   -1.5240885205    4.8235997111
O        0.7732368745   -0.3583201056    4.6950982431
H        0.4261107457   -0.8002211738    5.4800723659
H        3.7636248048   -2.2006912103    2.6407434606
H        3.9111015025   -2.2685760736    0.1690469753
15   

H        2.1602147766   -1.2026490457   -1.2262249048
C        2.0836571908   -1.1781757789   -0.1426555231
C        3.0758581507   -1.7675308478    0.6464472119
C        2.9776950420   -1.7355524208    2.0435566327
C        1.8839172544   -1.1118383401    2.6732783729
C        0.8928551528   -0.5209158424    1.8614180227
C        0.9922308246   -0.5549492422    0.4664184073
H        0.2190213747   -0.0940481654   -0.1420068922
H        0.0348176997   -0.0268462320    2.3105964641
C        1.7732870249   -1.0739648113    4.1431193128
O        2.6438235577   -1.5544947917    4.8245015410
O        0.7398915337   -0.3917709077    4.6809002893
H        0.5372040601   -0.7272520831    5.5655056809
H        3.7575447653   -2.1962091807    2.6456786312
H        3.9265162125   -2.2509404243    0.1749008287
15   

H        2.1791629692   -1.1887961336   -1.2286759086
C        2.0953857921   -1.1690422147   -0.1455496091
C        3.0881204418   -1.7517007240    0.6479196595
C        2.9804281937   -1.7260406087    2.0444824995
C        1.8763466187   -1.1156710341    2.6690369311
C        0.8844929651   -0.5320618901    1.8529607027
C        0.9936017328   -0.5593261693    0.4585648188
H        0.2194864459   -0.1043281104   -0.1531376661
H        0.0178626916   -0.0499574903    2.2987515365
C        1.7556122556   -1.0841983111    4.1380086188
O        2.6168413565   -1.5725990153    4.8267423208
O        0.6983528723   -0.4453050078    4.6712337923
H        0.6316876847   -0.6531752277    5.6154516743
H        3.7601814020   -2.1820480585    2.6502237489
H        3.9462745915   -2.2254184601    0.1801507162
15   

H        2.1947092602   -1.1718834637   -1.2287385204
C        2.1059431355   -1.1574054004   -0.1459280081
C        3.1015682355   -1.7322139329    0.6496834526
C        2.9872630061   -1.7136295830    2.0458506279
C        1.8733528453   -1.1187092148    2.6677265004
C        0.8783351847   -0.5435165791    1.8495569900
C        0.9943544979   -0.5631266145    0.4556079326
H        0.2175710707   -0.1149024008   -0.1577146193
H        0.0034069629   -0.0748170453    2.2934743495
C        1.7453914501   -1.0948628721    4.1361247707
O        2.6008503096   -1.5892390423    4.8282279659
O        0.6573532767   -0.5109993448    4.6661296362
H        0.6999540803   -0.5653297355    5.6333404788
H        3.7687563126   -2.1642673820    2.6533531620
H        3.9667851995   -2.1948489241    0.1838446196
15   

H        2.2007634317   -1.1496482458   -1.2274291899
C        2.1101983884   -1.1421951807   -0.1446947627
C        3.1110377820   -1.7101656520    0.6492425823
C        2.9942790713   -1.7009356647    2.0452819796
C        1.8724214704   -1.1227802604    2.6688101043
C        0.8718576379   -0.5549562732    1.8522307936
C        0.9906680168   -0.5646395294    0.4583949699
H        0.2094913307   -0.1224386718   -0.1537153359
H       -0.0100703087   -0.1005745851    2.2971381475
C        1.7418442730   -1.1091455964    4.1372136933
O        2.5956126918   -1.6110677238    4.8255151724
O        0.6233657383   -0.5811850372    4.6669061589
H        0.7381070498   -0.4603452269    5.6215966941
H        3.7794769900   -2.1470758940    2.6513376285
H        3.9819462694   -2.1607696101    0.1822101328
15   

H        2.2023024776   -1.1263745024   -1.2237943252
C        2.1115893910   -1.1275542315   -0.1410421101
C        3.1179339697   -1.6912765656    0.6488774896
C        3.0009058120   -1.6934859334    2.0448978637
C        1.8731154004   -1.1314117909    2.6726558102
C        0.8666663711   -0.5683752176    1.8599067993
C        0.9860211083   -0.5662019892    0.4660605094
H        0.2002409846   -0.1280829118   -0.1430907673
H       -0.0208904668   -0.1278025779    2.3073807667
C        1.7424952170   -1.1297652323    4.1413428617
O        2.5948125588   -1.6433128635    4.8216728059
O        0.5999815756   -0.6453155250    4.6728259354
H        0.7516274357   -0.3386777537    5.5778857632
H        3.7901918139   -2.1370411195    2.6475648868
H        3.9931447555   -2.1301900382    0.1787487832
15   

H        2.2019022038   -1.1031433423   -1.2186238279
C        2.1113981137   -1.1150612227   -0.1359102253
C        3.1218509205   -1.6790409479    0.6485063630
C        3.0050261070   -1.6953984186    2.0444202073
C        1.8734443841   -1.1471898223    2.6777021711
C        0.8624161055   -0.5845217975    1.8703599053
C        0.9816777552   -0.5681079845    0.4765830478
H        0.1923440834   -0.1307575951   -0.1285296003
H       -0.0293412741   -0.1563473569    2.3213536963
C        1.7438414781   -1.1595802722    4.1464666813
O        2.5896860048   -1.6921495693    4.8182448066
O        0.5891282398   -0.6919400859    4.6844710685
H        0.7563898927   -0.2017431636    5.4991409894
H        3.7973353929   -2.1395982073    2.6426930928
H        3.9999729921   -2.1075273681    0.1741810272
15   

H        2.1945887552   -1.0680403851   -1.2110054521
C        2.1059943231   -1.0933251420   -0.1283475792
C        3.1233624934   -1.6562885667    0.6477357268
C        3.0089989240   -1.6901711967    2.0434663497
C        1.8730778959   -1.1607549430    2.6849596853
C        0.8544998267   -0.5998878880    1.8860018919
C        0.9715604545   -0.5655732995    0.4923039163
H        0.1765956951   -0.1300737825   -0.1067620398
H       -0.0421178079   -0.1883806723    2.3426497780
C        1.7466703787   -1.1927006338    4.1535260743
O        2.5937320746   -1.7315294789    4.8159687824
O        0.5843146081   -0.7355471359    4.7051185344
H        0.7467312763   -0.0720023406    5.3842247046
H        3.8064455692   -2.1340392323    2.6352290337
H        4.0047907060   -2.0707883580    0.1670987888
15   

H        2.1894952980   -1.0233844468   -1.1989664177
C        2.1008101019   -1.0662769713   -0.1168449256
C        3.1199383092   -1.6384879626    0.6500955779
C        3.0051291809   -1.6960055221    2.0449419862
C        1.8677990934   -1.1800208682    2.6945571931
C        0.8468550619   -0.6104803613    1.9050386982
C        0.9641056576   -0.5531861580    0.5120503646
H        0.1671901942   -0.1123338228   -0.0805192263
H       -0.0530150473   -0.2128656285    2.3674463100
C        1.7415377547   -1.2388741136    4.1617086621
O        2.5707483659   -1.8108536126    4.8153960276
O        0.6010843426   -0.7318112742    4.7354542568
H        0.7746778590    0.0717176422    5.2340679807
H        3.8033450629   -2.1476706510    2.6298700668
H        4.0028042607   -2.0423349382    0.1629945624
15   

H        2.1920720120   -0.9607163159   -1.1810338465
C        2.1016510387   -1.0240401917   -0.1000252295
C        3.1210331247   -1.6081221903    0.6575605766
C        3.0035355434   -1.6933353726    2.0506814558
C        1.8639990295   -1.1923100424    2.7077595474
C        0.8421881377   -0.6113952682    1.9279176551
C        0.9619614839   -0.5269486501    0.5364599470
H        0.1641850579   -0.0790389961   -0.0496912621
H       -0.0619993886   -0.2298265631    2.3953243722
C        1.7335388424   -1.2860344471    4.1719997394
O        2.5470548902   -1.8862473052    4.8167177345
O        0.6300298214   -0.7166576198    4.7707461311
H        0.8013009899    0.1859379278    5.0515046476
H        3.8010782511   -2.1553472693    2.6285722979
H        4.0057513008   -2.0005382870    0.1644175314
15   

H        2.1947131331   -0.8991316622   -1.1601231816
C        2.1028533522   -0.9809750499   -0.0804417324
C        3.1217469149   -1.5773765216    0.6681072582
C        3.0019829681   -1.6879212033    2.0591621843
C        1.8614106077   -1.1989158899    2.7232232565
C        0.8393884548   -0.6062376170    1.9525812155
C        0.9613003110   -0.4970451182    0.5629666486
H        0.1632095014   -0.0418572121   -0.0172019352
H       -0.0685720426   -0.2389432416    2.4240375410
C        1.7266404034   -1.3255009760    4.1840133022
O        2.5229630600   -1.9593881536    4.8163580767
O        0.6772146513   -0.6878127990    4.8066287795
H        0.8182109921    0.2612737249    4.8588856084
H        3.7983487215   -2.1607068440    2.6300935812
H        4.0074437861   -1.9605892523    0.1694146728
15   

H        2.1830108957   -0.8600670889   -1.1417206200
C        2.0933064213   -0.9538390051   -0.0627889242
C        3.1134248655   -1.5594265398    0.6765524839
C        2.9963523926   -1.6862098927    2.0663351771
C        1.8580492638   -1.2032881366    2.7385488601
C        0.8338261695   -0.6023332839    1.9771475289
C        0.9530080155   -0.4773823215    0.5885234059
H        0.1534683720   -0.0169978307    0.0144009667
H       -0.0753775535   -0.2442253724    2.4531166903
C        1.7265273604   -1.3498802070    4.1973750642
O        2.5033872645   -2.0224477502    4.8141403649
O        0.7378355067   -0.6540096401    4.8415042669
H        0.8071218129    0.2927487769    4.6857321843
H        3.7932880492   -2.1666368634    2.6302098045
H        3.9978339909   -1.9376171218    0.1716807036
15   

H        2.1509382303   -0.8494503187   -1.1307655296
C        2.0675452716   -0.9481170209   -0.0517307008
C        3.0900780435   -1.5612325313    0.6778202052
C        2.9814288695   -1.6943417714    2.0675336570
C        1.8501612735   -1.2091811227    2.7498293691
C        0.8222669971   -0.6019069074    1.9982587270
C        0.9329658945   -0.4711638978    0.6093157253
H        0.1313005451   -0.0063098558    0.0417373545
H       -0.0843083836   -0.2453583589    2.4800862425
C        1.7320711998   -1.3605416134    4.2090352845
O        2.4827789562   -2.0780719343    4.8083070248
O        0.8064597221   -0.6146808271    4.8726823357
H        0.7703691066    0.2911116053    4.5467541279
H        3.7803544385   -2.1800746636    2.6241480953
H        3.9699927965   -1.9401255347    0.1655829773
15   

H        2.1027270437   -0.8653926736   -1.1266682483
C        2.0293484483   -0.9624630770   -0.0467354784
C        3.0544373473   -1.5830118368    0.6726101665
C        2.9592340268   -1.7133574809    2.0633836679
C        1.8400987382   -1.2169749218    2.7574147790
C        0.8082656033   -0.6034333753    2.0161274120
C        0.9053863727   -0.4761032720    0.6256659650
H        0.1017180605   -0.0061636902    0.0651145279
H       -0.0914796665   -0.2397227817    2.5048523255
C        1.7446223341   -1.3600076061    4.2189671693
O        2.4629092781   -2.1234719283    4.8019672369
O        0.8796570551   -0.5710231832    4.8998162704
H        0.7137027303    0.2641688277    4.4462888539
H        3.7606814914   -2.2034565854    2.6126195226
H        3.9263405681   -1.9689975189    0.1519581450
15   

H        2.0480121279   -0.9007164870   -1.1278406751
C        1.9857051904   -0.9915615971   -0.0466557808
C        3.0099524977   -1.6236544456    0.6634437514
C        2.9296607596   -1.7447855828    2.0557994211
C        1.8277308520   -1.2265521994    2.7612809554
C        0.7955546249   -0.6020465018    2.0293069088
C        0.8773797664   -0.4849682072    0.6367680140
H        0.0745373058   -0.0059570361    0.0827412926
H       -0.0928004726   -0.2204099910    2.5244168973
C        1.7595309640   -1.3521489483    4.2260582469
O        2.4386431647   -2.1607922615    4.7957947108
O        0.9540667574   -0.5217591351    4.9195930511
H        0.6435555903    0.2202057428    4.3848023805
H        3.7314060265   -2.2418413772    2.5983989509
H        3.8703063164   -2.0244679914    0.1347867319
15   

H        1.9918048678   -0.9392893638   -1.1330642841
C        1.9428151025   -1.0198650031   -0.0503758788
C        2.9616925109   -1.6703986547    0.6501091153
C        2.8991585279   -1.7770376150    2.0443390787
C        1.8214333447   -1.2257551695    2.7626955931
C        0.7944372162   -0.5812671981    2.0399376297
C        0.8580652187   -0.4798230549    0.6450004174
H        0.0601786744    0.0153307718    0.0980742232
H       -0.0754922675   -0.1674559858    2.5406457419
C        1.7842871622   -1.3319355372    4.2312349782
O        2.4463606446   -2.1623385220    4.7902618717
O        1.0071228433   -0.4880721497    4.9361936299
H        0.5258446077    0.1308077647    4.3713537733
H        3.6984654164   -2.2865927633    2.5789412837
H        3.8049810277   -2.0954930653    0.1129580715
