6    

H       -0.5705270037   -0.0581899433   -0.7701766191
C        0.0265059673    0.3286329349    0.0624006965
H       -0.6520335646    0.6983677836    0.8384921765
O        0.8557889299   -0.6603361629    0.5687624673
H        0.3697193641   -1.4836917489    0.6802303178
Br       1.1586915796    1.7754620708   -0.5756472037
6    

H       -0.5659829669   -0.0845009328   -0.7428095480
C        0.0176068155    0.3321313926    0.0848333523
H       -0.6743046258    0.7381164196    0.8304298629
O        0.8212929711   -0.6421280780    0.6507245824
H        0.4136821729   -1.5103742030    0.5776212171
Br       1.1692769711    1.7554480840   -0.6005019863
6    

H       -0.5742914975   -0.1069741856   -0.7173980879
C        0.0036063445    0.3310030749    0.1031336618
H       -0.6956457574    0.7764870889    0.8187391989
O        0.7673522067   -0.6344618439    0.7259357844
H        0.4809464643   -1.5203883071    0.4858342521
Br       1.1874073467    1.7302178679   -0.6185521633
6    

H       -0.5980405883   -0.1224304466   -0.6928964468
C       -0.0146778335    0.3262494777    0.1179106011
H       -0.7122753535    0.8119775036    0.8085181832
O        0.6999665310   -0.6364018102    0.7873007636
H        0.5667291852   -1.5107505104    0.4089978283
Br       1.2109381148    1.6979772278   -0.6321342789
6    

H       -0.2601310040   -0.1132807638   -0.9353622631
C       -0.0530068624    0.2861478884    0.0629533344
H       -1.0045216065    0.6186220366    0.4914435441
O        0.4857228643   -0.6808204081    0.8633352535
H        0.8221988197   -1.4253920060    0.3532513752
Br       1.1653800933    1.8663572854   -0.0828251648
6    

H       -0.3004672931   -0.1112299590   -0.9358235041
C       -0.0763870936    0.2780318145    0.0628924880
H       -1.0150823436    0.6475189546    0.4893470880
O        0.4121303314   -0.7123610297    0.8589668526
H        0.9225117354   -1.3576735053    0.3551127491
Br       1.2029446674    1.8166542677   -0.0823387185
6    

H       -0.3427448093   -0.0964066905   -0.9411652763
C       -0.0986843349    0.2718448672    0.0608848946
H       -1.0202678828    0.6725235541    0.4964087802
O        0.3506349801   -0.7494746197    0.8376581246
H        1.0134388172   -1.2794658174    0.3760676553
Br       1.2388736074    1.7587335944   -0.0823001346
6    

H       -0.3856210499   -0.0685379508   -0.9508615585
C       -0.1171924212    0.2683668356    0.0560238990
H       -1.0179891273    0.6929822888    0.5118866350
O        0.3026500753   -0.7917456530    0.8006290524
H        1.0910032222   -1.1983819384    0.4167365848
Br       1.2697432603    1.6981847423   -0.0830490317
6    

H       -0.4302118438   -0.0323061430   -0.9630062161
C       -0.1308747877    0.2646684233    0.0477614473
H       -1.0082783994    0.7028811201    0.5352785047
O        0.2692542623   -0.8380401857    0.7477081564
H        1.1518012016   -1.1233807069    0.4773341183
Br       1.2926174216    1.6446482092   -0.0870725631
6    

H       -0.4745684075    0.0115321619   -0.9763021355
C       -0.1379202271    0.2621609083    0.0353002704
H       -0.9902196709    0.7027859963    0.5634721480
O        0.2513387554   -0.8849762839    0.6811041859
H        1.1919756744   -1.0600821392    0.5556259292
Br       1.3067299337    1.6027725353   -0.0941469222
6    

H       -0.5171466968    0.0566054884   -0.9888976346
C       -0.1394461515    0.2585205691    0.0191075890
H       -0.9659789776    0.6898000351    0.5938770721
O        0.2490553683   -0.9282219899    0.6033881813
H        1.2083814522   -1.0099822520    0.6461968028
Br       1.3139865548    1.5763468926   -0.1037999700
6    

H       -0.5565993282    0.0974773087   -0.9984419001
C       -0.1369423178    0.2528388716    0.0011881002
H       -0.9369001841    0.6645913020    0.6257173317
O        0.2623554178   -0.9632881261    0.5193244349
H        1.1995706802   -0.9710181467    0.7414743083
Br       1.3173629474    1.5651724938   -0.1165163957
6    

H       -0.5924275857    0.1316288593   -1.0025040877
C       -0.1313884678    0.2461613851   -0.0156689050
H       -0.9031136937    0.6316287790    0.6591325468
O        0.2892211148   -0.9870997005    0.4346908973
H        1.1649078092   -0.9434950191    0.8348089703
Br       1.3201677998    1.5664709752   -0.1340668405
6    

H       -0.6248388574    0.1564966070   -0.9985067765
C       -0.1230715823    0.2396502919   -0.0285349156
H       -0.8656607538    0.5944377888    0.6940806973
O        0.3282462997   -0.9985999640    0.3556470561
H        1.1071360904   -0.9316587934    0.9213806572
Br       1.3210540778    1.5806252183   -0.1596583155
6    

H       -0.6525688856    0.1708572725   -0.9859056641
C       -0.1113872168    0.2352533965   -0.0358973131
H       -0.8260929523    0.5580687836    0.7285853587
O        0.3774350281   -0.9984456838    0.2882830578
H        1.0308205092   -0.9410299855    0.9976488602
Br       1.3169336847    1.6075746076   -0.1952333407
6    

H       -0.6723123498    0.1751168805   -0.9670179817
C       -0.0951204216    0.2348364147   -0.0381330478
H       -0.7855720010    0.5280094450    0.7598041530
O        0.4350534840   -0.9885876171    0.2371669014
H        0.9413891649   -0.9733144171    1.0604121375
Br       1.3051297936    1.6446851914   -0.2392665551
6    

H       -0.6831203359    0.1681704399   -0.9454324528
C       -0.0759810870    0.2376205688   -0.0365323941
H       -0.7469413236    0.5064670319    0.7861541897
O        0.4992795391   -0.9702849559    0.2051087478
H        0.8434556474   -1.0239495674    1.1061796402
Br       1.2858670524    1.6876943998   -0.2876829556
6    

H       -0.6846858545    0.1532651922   -0.9235827572
C       -0.0541035143    0.2444418254   -0.0327484379
H       -0.7085224119    0.4974425969    0.8080231242
O        0.5686652282   -0.9449394665    0.1926044476
H        0.7418319019   -1.0861820341    1.1311410242
Br       1.2612784149    1.7286160395   -0.3363304650
6    

H       -0.6782714642    0.1305894756   -0.9036920598
C       -0.0317514077    0.2540993244   -0.0283176442
H       -0.6720386413    0.5011687506    0.8249505753
O        0.6415120808   -0.9122691955    0.2000685532
H        0.6407428297   -1.1527422561    1.1327858300
Br       1.2338911660    1.7630614695   -0.3804350573
6    

H       -0.6653656608    0.1028313374   -0.8858584143
C       -0.0106182736    0.2672342124   -0.0234255766
H       -0.6400065629    0.5192341222    0.8364582886
O        0.7145065452   -0.8715399421    0.2273489730
H        0.5460383080   -1.2178260418    1.1088566386
Br       1.2066279175    1.7868277891   -0.4178072392
6    

H       -0.6484566893    0.0704014963   -0.8673873820
C        0.0070418498    0.2813309860   -0.0157236117
H       -0.6177222580    0.5475845179    0.8432532119
O        0.7794815098   -0.8248474683    0.2724918507
H        0.4640668712   -1.2806980957    1.0581460728
Br       1.1837256052    1.7998394336   -0.4510328176
6    

H       -0.6279260097    0.0361298623   -0.8468005537
C        0.0202152108    0.2955345926   -0.0029394281
H       -0.6095313245    0.5820013310    0.8458882360
O        0.8292244082   -0.7759765323    0.3327646787
H        0.4010101576   -1.3405730816    0.9833066522
Br       1.1676640157    1.8038219900   -0.4828482425
6    

H       -0.6055582340    0.0023534190   -0.8234906094
C        0.0279370110    0.3091127819    0.0155685208
H       -0.6154699477    0.6194558608    0.8456166833
O        0.8598532687   -0.7292997456    0.4051711012
H        0.3628959842   -1.3956224897    0.8906087906
Br       1.1580037709    1.8004475411   -0.5146712852
6    

H       -0.5849479319   -0.0293044748   -0.7976424117
C        0.0300331009    0.3205165246    0.0382941858
H       -0.6312382040    0.6584478599    0.8432097715
O        0.8687437554   -0.6898228926    0.4854328259
H        0.3520975846   -1.4443088187    0.7870949006
Br       1.1552147913    1.7905936092   -0.5461351047
