15   

H        1.8845501330   -1.1969426162   -1.1372784161
C        1.8989896509   -1.1487037908   -0.0516632572
C        2.9606941338   -1.7129154345    0.6605965279
C        2.9827613896   -1.6485462023    2.0588609386
C        1.9377439889   -1.0271727722    2.7676298655
C        0.8788116441   -0.4511546543    2.0341132770
C        0.8609934674   -0.5146551551    0.6358223573
H        0.0426240150   -0.0637816996    0.0809008476
H        0.0688827972    0.0726119690    2.5337520323
C        1.9680883683   -0.9741836753    4.2380957310
O        2.9986688411   -1.1458666493    4.8281181973
O        0.8176975165   -0.7689074310    4.9117198680
H        0.0392111191   -0.8750488027    4.3499162352
H        3.8161069518   -2.0883348267    2.6032829618
H        3.7727970913   -2.2011722012    0.1291526867
15   

H        1.8838575090   -1.2620476788   -1.1393029911
C        1.8976849442   -1.2010759204   -0.0543361173
C        2.9498304974   -1.7725907419    0.6665707574
C        2.9717723159   -1.6906359636    2.0641066525
C        1.9363535823   -1.0425347892    2.7629710962
C        0.8871238638   -0.4605202117    2.0206801291
C        0.8687458164   -0.5425068984    0.6235513425
H        0.0577801976   -0.0857915530    0.0625792029
H        0.0864423729    0.0827230616    2.5151241283
C        1.9669687079   -0.9570535557    4.2318023284
O        2.9799005709   -1.1865343014    4.8318113293
O        0.8201727735   -0.6788308861    4.8963827097
H        0.0378198781   -0.9607343381    4.4072733019
H        3.7988991871   -2.1341969117    2.6148243802
H        3.7553462751   -2.2788897193    0.1420858882
15   

H        1.8962134804   -1.3110821042   -1.1454714077
C        1.9060715055   -1.2407516022   -0.0610535471
C        2.9502957134   -1.8145568615    0.6697485856
C        2.9674284412   -1.7197135783    2.0667229557
C        1.9353380608   -1.0548149697    2.7547447125
C        0.8937839580   -0.4722952897    2.0023865054
C        0.8797244407   -0.5676499370    0.6062416587
H        0.0743150914   -0.1095802371    0.0384479086
H        0.0956978598    0.0808676678    2.4904775744
C        1.9609905227   -0.9456727612    4.2222483695
O        2.9519553600   -1.2277853219    4.8353878664
O        0.8187513595   -0.5924102168    4.8733903761
H        0.0425735843   -1.0278828458    4.5047395272
H        3.7893207866   -2.1638245886    2.6246624879
H        3.7538642270   -2.3318114484    0.1531034521
15   

H        1.9225824826   -1.3320183791   -1.1567541605
C        1.9249406966   -1.2589451873   -0.0725086146
C        2.9612628377   -1.8351691275    0.6677657966
C        2.9685564327   -1.7365642228    2.0647266734
C        1.9348660963   -1.0640505611    2.7429804111
C        0.9008631951   -0.4808171450    1.9810175419
C        0.8962142205   -0.5802844042    0.5852458147
H        0.0958836145   -0.1213312246    0.0110794634
H        0.1002070618    0.0740123737    2.4632557006
C        1.9493342915   -0.9460609383    4.2102323805
O        2.9158055587   -1.2749738308    4.8379288803
O        0.8161862423   -0.5120029357    4.8460307092
H        0.0570692655   -1.0667189309    4.6424410287
H        3.7847168411   -2.1821511108    2.6297095372
H        3.7664442645   -2.3569452554    0.1583193553
15   

H        1.9623589574   -1.3202253605   -1.1735337059
C        1.9534609467   -1.2517164546   -0.0890633491
C        2.9811053124   -1.8322588423    0.6599907417
C        2.9731972936   -1.7400860917    2.0575024650
C        1.9333809581   -1.0684796893    2.7273796221
C        0.9078094851   -0.4822338563    1.9565328086
C        0.9179680888   -0.5755727083    0.5604673209
H        0.1229742841   -0.1147720516   -0.0195224739
H        0.1001780083    0.0668874081    2.4337809407
C        1.9291469593   -0.9584922434    4.1957048625
O        2.8728577852   -1.3252648400    4.8365564315
O        0.8133844471   -0.4410311361    4.8144917730
H        0.0849205742   -1.0676986832    4.8165559905
H        3.7823953172   -2.1896156140    2.6291746553
H        3.7910473443   -2.3527626912    0.1569252442
15   

H        2.0135776339   -1.2842108686   -1.1913346299
C        1.9897549003   -1.2268386821   -0.1064814537
C        3.0069953113   -1.8148013391    0.6509812348
C        2.9788250365   -1.7381266185    2.0492588479
C        1.9295941016   -1.0734411184    2.7115496459
C        0.9143347724   -0.4806537390    1.9320852582
C        0.9443220761   -0.5589263295    0.5354444424
H        0.1558150171   -0.0942183355   -0.0501720264
H        0.0967629637    0.0578883464    2.4044913239
C        1.8997871122   -0.9847514010    4.1816005266
O        2.8238530391   -1.3846174627    4.8327035659
O        0.8135777641   -0.3840208727    4.7813433930
H        0.1343895329   -1.0226726858    5.0130015120
H        3.7793506910   -2.1947321454    2.6273222083
H        3.8240418547   -2.3298582855    0.1539319524
15   

H        2.0656464133   -1.2478166572   -1.2061178752
C        2.0254508753   -1.2028351586   -0.1211972662
C        3.0322737048   -1.7973498191    0.6450308178
C        2.9820827702   -1.7377647973    2.0436073325
C        1.9215828448   -1.0825432691    2.6976598306
C        0.9166564637   -0.4839712290    1.9090680043
C        0.9682888016   -0.5455920727    0.5122917697
H        0.1863762250   -0.0775480140   -0.0794102024
H        0.0879574683    0.0426251778    2.3755855997
C        1.8644648008   -1.0160943889    4.1688027370
O        2.7728100942   -1.4446641856    4.8270544181
O        0.8118864082   -0.3497796604    4.7476219735
H        0.2118289264   -0.9483311713    5.2015783603
H        3.7740356015   -2.2007827728    2.6281720664
H        3.8578333676   -2.3050512498    0.1546202074
15   

H        2.1064431180   -1.2277832756   -1.2160938476
C        2.0513952101   -1.1922741854   -0.1314993641
C        3.0492075211   -1.7906794258    0.6434540954
C        2.9792482863   -1.7440913646    2.0417481653
C        1.9083706933   -1.0967995926    2.6869972789
C        0.9123011064   -0.4951397931    1.8893397484
C        0.9832785850   -0.5443382220    0.4929814763
H        0.2071125080   -0.0747693415   -0.1049985441
H        0.0737532106    0.0216050398    2.3493406097
C        1.8283881370   -1.0446122746    4.1582436765
O        2.7179718929   -1.5063816611    4.8231421996
O        0.8069430448   -0.3321011349    4.7179690519
H        0.3143682362   -0.8555188143    5.3592646619
H        3.7640092053   -2.2109504246    2.6327777568
H        3.8828272044   -2.2918207365    0.1600564932
15   

H        2.1402170295   -1.2149185160   -1.2221844744
C        2.0728492000   -1.1849117824   -0.1381351485
C        3.0675984328   -1.7773532055    0.6453726418
C        2.9815060984   -1.7380210752    2.0430607778
C        1.8972877361   -1.1039808645    2.6790793657
C        0.9039580396   -0.5092357424    1.8727610231
C        0.9912436280   -0.5507650067    0.4771381247
H        0.2166862006   -0.0866341441   -0.1271198057
H        0.0540726532   -0.0051808178    2.3261740114
C        1.7990648920   -1.0595077510    4.1496555281
O        2.6824298442   -1.5240885205    4.8235997111
O        0.7732368745   -0.3583201056    4.6950982431
H        0.4261107457   -0.8002211738    5.4800723659
H        3.7636248756   -2.2006911015    2.6407434546
H        3.9111015610   -2.2685760121    0.1690469769
15   

H        2.1602150225   -1.2026486711   -1.2262249104
C        2.0836573985   -1.1781754602   -0.1426555288
C        3.0758582266   -1.7675307549    0.6464472052
C        2.9776950652   -1.7355524090    2.0435566275
C        1.8839173501   -1.1118381999    2.6732783703
C        0.8928553849   -0.5209154782    1.8614180177
C        0.9922311167   -0.5549487773    0.4664184041
H        0.2190217715   -0.0940475150   -0.1420068888
H        0.0348179839   -0.0268457749    2.3105964543
C        1.7732870249   -1.0739648113    4.1431193128
O        2.6438235577   -1.5544947917    4.8245015410
O        0.7398915337   -0.3917709077    4.6809002893
H        0.5372040601   -0.7272520831    5.5655056809
H        3.7575446782   -2.1962093454    2.6456786335
H        3.9265162245   -2.2509404469    0.1749008222
15   

H        2.1791632403   -1.1887958846   -1.2286759007
C        2.0953860066   -1.1690420058   -0.1455496043
C        3.0881205602   -1.7517006505    0.6479196821
C        2.9804282518   -1.7260405868    2.0444825194
C        1.8763467014   -1.1156709399    2.6690369316
C        0.8844931395   -0.5320616660    1.8529606817
C        0.9936019756   -0.5593258867    0.4585648008
H        0.2194867621   -0.1043277347   -0.1531377079
H        0.0178628790   -0.0499572155    2.2987514866
C        1.7556122556   -1.0841983111    4.1380086188
O        2.6168413565   -1.5725990153    4.8267423208
O        0.6983528723   -0.4453050078    4.6712337923
H        0.6316876847   -0.6531752277    5.6154516743
H        3.7601813895   -2.1820481430    2.6502237808
H        3.9462746818   -2.2254184560    0.1801507567
15   

H        2.1947094018   -1.1718835527   -1.2287385195
C        2.1059432492   -1.1574054619   -0.1459280080
C        3.1015683531   -1.7322139285    0.6496834970
C        2.9872630803   -1.7136295506    2.0458506680
C        1.8733528755   -1.1187092211    2.6677264998
C        0.8783352133   -0.5435166419    1.8495569503
C        0.9943545691   -0.5631267080    0.4556078917
H        0.2175711409   -0.1149025469   -0.1577146981
H        0.0034069614   -0.0748171376    2.2934742806
C        1.7453914501   -1.0948628721    4.1361247707
O        2.6008503096   -1.5892390423    4.8282279659
O        0.6573532767   -0.5109993448    4.6661296362
H        0.6999540803   -0.5653297355    5.6333404788
H        3.7687563885   -2.1642673005    2.6533532364
H        3.9667853573   -2.1948488963    0.1838447122
15   

H        2.2007635342   -1.1496483644   -1.2274291777
C        2.1101984530   -1.1421952960   -0.1446947554
C        3.1110378464   -1.7101657162    0.6492426260
C        2.9942790903   -1.7009357163    2.0452820169
C        1.8724214561   -1.1227803379    2.6688101032
C        0.8718576203   -0.5549564087    1.8522307565
C        0.9906680370   -0.5646396835    0.4583949343
H        0.2094913516   -0.1224388637   -0.1537154015
H       -0.0100703497   -0.1005747438    2.2971380843
C        1.7418442730   -1.1091455964    4.1372136933
O        2.5956126918   -1.6110677238    4.8255151724
O        0.6233657383   -0.5811850372    4.6669061589
H        0.7381070498   -0.4603452269    5.6215966941
H        3.7794770146   -2.1470758986    2.6513376908
H        3.9819463742   -2.1607696310    0.1822102106
15   

H        2.2023026642   -1.1263745651   -1.2237943059
C        2.1115895118   -1.1275543116   -0.1410420960
C        3.1179340987   -1.6912765679    0.6488775451
C        3.0009058729   -1.6934859563    2.0448979115
C        1.8731153988   -1.1314118848    2.6726558114
C        0.8666663538   -0.5683754053    1.8599067579
C        0.9860211492   -0.5662021770    0.4660604722
H        0.2002410182   -0.1280831758   -0.1430908488
H       -0.0208905346   -0.1278028260    2.3073806828
C        1.7424952170   -1.1297652323    4.1413428617
O        2.5948125588   -1.6433128635    4.8216728059
O        0.5999815756   -0.6453155250    4.6728259354
H        0.7516274357   -0.3386777537    5.5778857632
H        3.7901918823   -2.1370410821    2.6475649699
H        3.9931449494   -2.1301899576    0.1787488846
15   

H        2.2019020090   -1.1031435883   -1.2186238374
C        2.1113979525   -1.1150614369   -0.1359102336
C        3.1218508772   -1.6790409629    0.6485063488
C        3.0050261157   -1.6953983774    2.0444201973
C        1.8734443209   -1.1471899323    2.6777021659
C        0.8624159161   -0.5845221248    1.8703599040
C        0.9816775190   -0.5681083566    0.4765830445
H        0.1923437547   -0.1307581254   -0.1285295995
H       -0.0293415258   -0.1563478167    2.3213537017
C        1.7438414781   -1.1595802722    4.1464666813
O        2.5896860048   -1.6921495693    4.8182448066
O        0.5891282398   -0.6919400859    4.6844710685
H        0.7563898927   -0.2017431636    5.4991409894
H        3.7973355096   -2.1395979877    2.6426930761
H        3.9999730052   -2.1075272612    0.1741810057
15   

H        2.1945889663   -1.0680396344   -1.2110054220
C        2.1059944982   -1.0933245432   -0.1283475534
C        3.1233626616   -1.6562880327    0.6477357150
C        3.0089990453   -1.6901708497    2.0434663332
C        1.8730779669   -1.1607547395    2.6849596973
C        0.8544999022   -0.5998876228    1.8860019411
C        0.9715605855   -0.5655728348    0.4923039777
H        0.1765958256   -0.1300732694   -0.1067619407
H       -0.0421177737   -0.1883805156    2.3426498469
C        1.7466703787   -1.1927006338    4.1535260743
O        2.5937320746   -1.7315294789    4.8159687824
O        0.5843146081   -0.7355471359    4.7051185344
H        0.7467312763   -0.0720023406    5.3842247046
H        3.8064456898   -2.1340389210    2.6352289904
H        4.0047909039   -2.0707877314    0.1670987514
15   

H        2.1894956439   -1.0233837932   -1.1989663494
C        2.1008103909   -1.0662764176   -0.1168448674
C        3.1199387077   -1.6384871839    0.6500956617
C        3.0051294994   -1.6960048998    2.0449420544
C        1.8677992262   -1.1800206129    2.6945572205
C        0.8468550955   -0.6104803171    1.9050387048
C        0.9641057620   -0.5531859682    0.5120503847
H        0.1671902076   -0.1123338165   -0.0805192226
H       -0.0530151622   -0.2128658945    2.3674462936
C        1.7415377547   -1.2388741136    4.1617086621
O        2.5707483659   -1.8108536126    4.8153960276
O        0.6010843426   -0.7318112742    4.7354542568
H        0.7746778590    0.0717176422    5.2340679807
H        3.8033454562   -2.1476698779    2.6298701503
H        4.0028048035   -2.0423338756    0.1629946773
15   

H        2.1920723919   -0.9607154584   -1.1810337556
C        2.1016513738   -1.0240394635   -0.1000251478
C        3.1210334280   -1.6081215411    0.6575606387
C        3.0035357774   -1.6933349063    2.0506815014
C        1.8639992112   -1.1923096912    2.7077595903
C        0.8421883585   -0.6113948242    1.9279177169
C        0.9619617810   -0.5269480139    0.5364600294
H        0.1641853768   -0.0790382958   -0.0496911597
H       -0.0619992141   -0.2298262229    2.3953244322
C        1.7335388424   -1.2860344471    4.1719997394
O        2.5470548902   -1.8862473052    4.8167177345
O        0.6300298214   -0.7166576198    4.7707461311
H        0.8013009899    0.1859379278    5.0515046476
H        3.8010784505   -2.1553468918    2.6285723216
H        4.0057516258   -2.0005375780    0.1644175844
15   

H        2.1947131541   -0.8991314575   -1.1601231569
C        2.1028533974   -0.9809748468   -0.0804417061
C        3.1217469469   -1.5773763704    0.6681072617
C        3.0019830114   -1.6879210779    2.0591621877
C        1.8614106794   -1.1989157358    2.7232232791
C        0.8393885487   -0.6062373944    1.9525812624
C        0.9613003889   -0.4970448726    0.5629666984
H        0.1632095839   -0.0418569290   -0.0172018604
H       -0.0685719362   -0.2389430058    2.4240376009
C        1.7266404034   -1.3255009760    4.1840133022
O        2.5229630600   -1.9593881536    4.8163580767
O        0.6772146513   -0.6878127990    4.8066287795
H        0.8182109921    0.2612737249    4.8588856084
H        3.7983487306   -2.1607067939    2.6300935690
H        4.0074437871   -1.9605891396    0.1694146516
15   

H        2.1830110823   -0.8600668924   -1.1417205869
C        2.0933065636   -0.9538388326   -0.0627888985
C        3.1134249613   -1.5594264326    0.6765525190
C        2.9963524409   -1.6862098345    2.0663352010
C        1.8580493188   -1.2032880529    2.7385488717
C        0.8338262751   -0.6023331166    1.9771475329
C        0.9530081597   -0.4773821202    0.5885234155
H        0.1534685504   -0.0169975725    0.0144009722
H       -0.0753774379   -0.2442251644    2.4531166805
C        1.7265273604   -1.3498802070    4.1973750642
O        2.5033872645   -2.0224477502    4.8141403649
O        0.7378355067   -0.6540096401    4.8415042669
H        0.8071218129    0.2927487769    4.6857321843
H        3.7932880547   -2.1666368733    2.6302098299
H        3.9978340814   -1.9376170384    0.1716807490
15   

H        2.1509380154   -0.8494506919   -1.1307655769
C        2.0675451001   -0.9481173099   -0.0517307381
C        3.0900779175   -1.5612327371    0.6778201714
C        2.9814288032   -1.6943418702    2.0675336374
C        1.8501612166   -1.2091812103    2.7498293579
C        0.8222668999   -0.6019070725    1.9982587167
C        0.9329657356   -0.4711641668    0.6093157010
H        0.1313003488   -0.0063101972    0.0417373251
H       -0.0843084659   -0.2453585072    2.4800862481
C        1.7320711998   -1.3605416134    4.2090352845
O        2.4827789562   -2.0780719343    4.8083070248
O        0.8064597221   -0.6146808271    4.8726823357
H        0.7703691066    0.2911116053    4.5467541279
H        3.7803544096   -2.1800746881    2.6241480819
H        3.9699926603   -1.9401257672    0.1655829428
15   

H        2.1027268420   -0.8653926165   -1.1266682394
C        2.0293482864   -0.9624630419   -0.0467354701
C        3.0544372168   -1.5830118072    0.6726101247
C        2.9592339465   -1.7133574771    2.0633836255
C        1.8400986762   -1.2169749462    2.7574147810
C        0.8082655128   -0.6034333906    2.0161274700
C        0.9053862354   -0.4761032514    0.6256660275
H        0.1017179001   -0.0061636467    0.0651146457
H       -0.0914797360   -0.2397228122    2.5048524317
C        1.7446223341   -1.3600076061    4.2189671693
O        2.4629092781   -2.1234719283    4.8019672369
O        0.8796570551   -0.5710231832    4.8998162704
H        0.7137027303    0.2641688277    4.4462888539
H        3.7606814390   -2.2034565720    2.6126194478
H        3.9263404245   -1.9689974664    0.1519580613
15   

H        2.0480122451   -0.9007166125   -1.1278406833
C        1.9857052715   -0.9915617036   -0.0466557875
C        3.0099525026   -1.6236546403    0.6634437759
C        2.9296607252   -1.7447857425    2.0557994453
C        1.8277308496   -1.2265522482    2.7612809517
C        0.7955546891   -0.6020464742    2.0293068766
C        0.8773798799   -0.4849682009    0.6367679800
H        0.0745374809   -0.0059569561    0.0827412336
H       -0.0928003861   -0.2204098811    2.5244168421
C        1.7595309640   -1.3521489483    4.2260582469
O        2.4386431647   -2.1607922615    4.7957947108
O        0.9540667574   -0.5217591351    4.9195930511
H        0.6435555903    0.2202057428    4.3848023805
H        3.7314059386   -2.2418415933    2.5983990030
H        3.8703062973   -2.0244682781    0.1347867865
15   

H        1.9918049771   -0.9392896034   -1.1330643078
C        1.9428151861   -1.0198651937   -0.0503759001
C        2.9616923817   -1.6703991514    0.6501091167
C        2.8991583680   -1.7770380378    2.0443390825
C        1.8214333620   -1.2257552161    2.7626955861
C        0.7944374433   -0.5812669398    2.0399375988
C        0.8580654801   -0.4798228671    0.6450003840
H        0.0601790950    0.0153312054    0.0980741803
H       -0.0754919051   -0.1674554169    2.5406456906
C        1.7842871622   -1.3319355372    4.2312349782
O        2.4463606446   -2.1623385220    4.7902618717
O        1.0071228433   -0.4880721497    4.9361936299
H        0.5258446077    0.1308077647    4.3713537733
H        3.6984650964   -2.2865934259    2.5789412974
H        3.8049807632   -2.0954938530    0.1129580862
