15   

H        1.8844933601   -1.1974220680   -1.1372584160
C        1.8989336994   -1.1491144940   -0.0516463292
C        2.9606384581   -1.7132801793    0.6606503200
C        2.9827131963   -1.6488105002    2.0589107393
C        1.9377026826   -1.0273788222    2.7676381299
C        0.8787665159   -0.4514153689    2.0340829885
C        0.8609406727   -0.5150167388    0.6357975784
H        0.0425733111   -0.0641739590    0.0808478079
H        0.0688489970    0.0724046654    2.5336842967
C        1.9680883683   -0.9741836753    4.2380957310
O        2.9986688411   -1.1458666493    4.8281181973
O        0.8176975165   -0.7689074310    4.9117198680
H        0.0392111191   -0.8750488027    4.3499162352
H        3.8160682033   -2.0885467072    2.6033603651
H        3.7727414075   -2.2015695132    0.1292366355
15   

H        1.8836830952   -1.2630142922   -1.1392451474
C        1.8975219429   -1.2019042828   -0.0542861986
C        2.9496719916   -1.7733301259    0.6666861745
C        2.9716423600   -1.6911729798    2.0642110806
C        1.9362475447   -1.0429507744    2.7629977067
C        0.8870057362   -0.4610423801    2.0206382750
C        0.8685986791   -0.5432325711    0.6235233620
H        0.0576349791   -0.0865756287    0.0625004077
H        0.0863561186    0.0823134782    2.5150106835
C        1.9669687079   -0.9570535557    4.2318023284
O        2.9799005709   -1.1865343014    4.8318113293
O        0.8201727735   -0.6788308861    4.8963827097
H        0.0378198781   -0.9607343381    4.4072733019
H        3.7987925819   -2.1346306960    2.6149764231
H        3.7551810712   -2.2796971942    0.1422571955
15   

H        1.8958551798   -1.3125324949   -1.1453659772
C        1.9057461982   -1.2419956002   -0.0609618137
C        2.9499867641   -1.8156685074    0.6699227357
C        2.9671841097   -1.7205219294    2.0668773867
C        1.9351426416   -1.0554410242    2.7547952051
C        0.8935597523   -0.4730797997    2.0023509705
C        0.8794349394   -0.5687394782    0.6062296726
H        0.0740219493   -0.1107556752    0.0383711183
H        0.0955326438    0.0802548525    2.4903447232
C        1.9609905227   -0.9456727612    4.2222483695
O        2.9519553600   -1.2277853219    4.8353878664
O        0.8187513595   -0.5924102168    4.8733903761
H        0.0425735843   -1.0278828458    4.5047395272
H        3.7891206673   -2.1644778288    2.6248747201
H        3.7535367482   -2.3330250981    0.1533514719
15   

H        1.9219693729   -1.3339235851   -1.1566093894
C        1.9243942889   -1.2605814744   -0.0723821245
C        2.9607554588   -1.8366292917    0.6679766332
C        2.9681657865   -1.7376268256    2.0649105289
C        1.9345553977   -1.0648771570    2.7430509402
C        0.9004952983   -0.4818552951    1.9810002131
C        0.8957288312   -0.5817221388    0.5852595893
H        0.0953809291   -0.1228824826    0.0110258504
H        0.0999294673    0.0731993289    2.4631302961
C        1.9493342915   -0.9460609383    4.2102323805
O        2.9158055587   -1.2749738308    4.8379288803
O        0.8161862423   -0.5120029357    4.8460307092
H        0.0570692655   -1.0667189309    4.6424410287
H        3.7844000435   -2.1830058907    2.6299501340
H        3.7659026371   -2.3585354585    0.1586098248
15   

H        1.9614557742   -1.3224608085   -1.1733826018
C        1.9526661636   -1.2536395901   -0.0889310915
C        2.9803809855   -1.8339708461    0.6601915357
C        2.9726507707   -1.7413329423    2.0576749275
C        1.9329463523   -1.0694560321    2.7274532459
C        0.9072806066   -0.4834647299    1.9565352902
C        0.9172607088   -0.5772706215    0.5605016725
H        0.1222287215   -0.1166054738   -0.0195441337
H        0.0997694225    0.0659178557    2.4336872337
C        1.9291469593   -0.9584922434    4.1957048625
O        2.8728577852   -1.3252648400    4.8365564315
O        0.8133844471   -0.4410311361    4.8144917730
H        0.0849205742   -1.0676986832    4.8165559905
H        3.7819568108   -2.1906115315    2.6293912539
H        3.7902715620   -2.3546204801    0.1571944705
15   

H        2.0124523284   -1.2864834320   -1.1912257551
C        1.9887736731   -1.2287976110   -0.1063859962
C        3.0061135124   -1.8165419464    0.6511135873
C        2.9781697557   -1.7393960196    2.0493705762
C        1.9290728587   -1.0744416784    2.7116020884
C        0.9136871253   -0.4819188142    1.9320996987
C        0.9434473582   -0.5606639642    0.5354816426
H        0.1548813269   -0.0960954278   -0.0501665567
H        0.0962536845    0.0568862978    2.4044459871
C        1.8997871122   -0.9847514010    4.1816005266
O        2.8238530391   -1.3846174627    4.8327035659
O        0.8135777641   -0.3840208727    4.7813433930
H        0.1343895329   -1.0226726858    5.0130015120
H        3.7788288927   -2.1957390700    2.6274564318
H        3.8230950931   -2.3317401969    0.1541041159
15   

H        2.0644994124   -1.2497988051   -1.2060701030
C        2.0244566933   -1.2045469628   -0.1211550256
C        3.0313886546   -1.7988688931    0.6450795543
C        2.9814318294   -1.7388743706    2.0436470247
C        1.9210648860   -1.0834227537    2.6976825361
C        0.9160036903   -0.4850853945    1.9090844337
C        0.9674015132   -0.5471165213    0.5123179374
H        0.1854212618   -0.0791950135   -0.0793917656
H        0.0874380947    0.0417385711    2.3755823815
C        1.8644648008   -1.0160943889    4.1688027370
O        2.7728100942   -1.4446641856    4.8270544181
O        0.8118864082   -0.3497796604    4.7476219735
H        0.2118289264   -0.9483311713    5.2015783603
H        3.7735198119   -2.2016578689    2.6282146433
H        3.8568815847   -2.3066883591    0.1546787281
15   

H        2.1054416669   -1.2293218728   -1.2160888601
C        2.0505307000   -1.1936051507   -0.1314942037
C        3.0484422006   -1.7918608060    0.6434469674
C        2.9786892756   -1.7449559964    2.0417404142
C        1.9079263282   -1.0974870128    2.6870002520
C        0.9117362301   -0.4960104199    1.8893558555
C        0.9825071246   -0.5455260495    0.4929980160
H        0.2062780508   -0.0760517027   -0.1049745077
H        0.0733008550    0.0209110844    2.3493633662
C        1.8283881370   -1.0446122746    4.1582436765
O        2.7179718929   -1.5063816611    4.8231421996
O        0.8069430448   -0.3321011349    4.7179690519
H        0.3143682362   -0.8555188143    5.3592646619
H        3.7635672346   -2.2116306179    2.6327606447
H        3.8820028178   -2.2930913903    0.1600398548
15   

H        2.1394854578   -1.2160481029   -1.2221953145
C        2.0722180893   -1.1858892677   -0.1381439420
C        3.0670413093   -1.7782192534    0.6453540991
C        2.9811000074   -1.7386547555    2.0430447001
C        1.8969641930   -1.1044863045    2.6790749155
C        0.9035450029   -0.5098775625    1.8727669731
C        0.9906794135   -0.5516393882    0.4771413057
H        0.2160746922   -0.0875790272   -0.1271101556
H        0.0537405944   -0.0056943962    2.3261891599
C        1.7990648920   -1.0595077510    4.1496555281
O        2.6824298442   -1.5240885205    4.8235997111
O        0.7732368745   -0.3583201056    4.6950982431
H        0.4261107457   -0.8002211738    5.4800723659
H        3.7633050902   -2.2011877998    2.6407207200
H        3.9105019959   -2.2695060362    0.1690190995
15   

H        2.1597430467   -1.2033858490   -1.2262396951
C        2.0832503825   -1.1788134737   -0.1426679559
C        3.0754993767   -1.7680955704    0.6464288039
C        2.9774338164   -1.7359656300    2.0435414250
C        1.8837090408   -1.1121682339    2.6732721327
C        0.8925889109   -0.5213351129    1.8614180026
C        0.9918669767   -0.5555201042    0.4664149658
H        0.2186267172   -0.0946652041   -0.1420061466
H        0.0346033911   -0.0271821541    2.3106039360
C        1.7732870249   -1.0739648113    4.1431193128
O        2.6438235577   -1.5544947917    4.8245015410
O        0.7398915337   -0.3917709077    4.6809002893
H        0.5372040601   -0.7272520831    5.5655056809
H        3.7573394764   -2.1965328229    2.6456596320
H        3.9261301810   -2.2515466066    0.1748756595
15   

H        2.1789407009   -1.1891651290   -1.2286858213
C        2.0951939370   -1.1693614555   -0.1455580765
C        3.0879512550   -1.7519829809    0.6479099606
C        2.9803049231   -1.7262469388    2.0444748902
C        1.8762481755   -1.1158359943    2.6690326258
C        0.8843670612   -0.5322720490    1.8529575734
C        0.9934298960   -0.5596122811    0.4585595342
H        0.2193000737   -0.1046377292   -0.1531420360
H        0.0177612602   -0.0501263239    2.2987512762
C        1.7556122556   -1.0841983111    4.1380086188
O        2.6168413565   -1.5725990153    4.8267423208
O        0.6983528723   -0.4453050078    4.6712337923
H        0.6316876847   -0.6531752277    5.6154516743
H        3.7600848344   -2.1822094025    2.6502156672
H        3.9460927896   -2.2257213001    0.1801386933
15   

H        2.1947094359   -1.1718835717   -1.2287385093
C        2.1059432712   -1.1574054691   -0.1459279978
C        3.1015683259   -1.7322140117    0.6496835088
C        2.9872630494   -1.7136296230    2.0458506792
C        1.8733528843   -1.1187092106    2.6677265035
C        0.8783352660   -0.5435165576    1.8495569509
C        0.9943546312   -0.5631266342    0.4556078931
H        0.2175712352   -0.1149024207   -0.1577146986
H        0.0034070421   -0.0748169918    2.2934742752
C        1.7453914501   -1.0948628721    4.1361247707
O        2.6008503096   -1.5892390423    4.8282279659
O        0.6573532767   -0.5109993448    4.6661296362
H        0.6999540803   -0.5653297355    5.6333404788
H        3.7687563232   -2.1642674399    2.6533532437
H        3.9667852856   -2.1948490485    0.1838447148
15   

H        2.2009570865   -1.1492632247   -1.2274151045
C        2.1103661637   -1.1418624916   -0.1446824814
C        3.1111864119   -1.7098717957    0.6492511943
C        2.9943879390   -1.7007212207    2.0452877374
C        1.8725085217   -1.1226090128    2.6688165025
C        0.8719682155   -0.5547377803    1.8522413360
C        0.9908183672   -0.5643415976    0.4584083028
H        0.2096537677   -0.1221159614   -0.1536995243
H       -0.0099816946   -0.1003989541    2.2971489128
C        1.7418442730   -1.1091455964    4.1372136933
O        2.5956126918   -1.6110677238    4.8255151724
O        0.6233657383   -0.5811850372    4.6669061589
H        0.7381070498   -0.4603452269    5.6215966941
H        3.7795620809   -2.1469079792    2.6513399725
H        3.9821056380   -2.1604539847    0.1822177428
15   

H        2.2026741841   -1.1255829923   -1.2237604154
C        2.1119118504   -1.1268704651   -0.1410124353
C        3.1182203637   -1.6906722152    0.6488963554
C        3.0011160455   -1.6930448142    2.0449098980
C        1.8732833721   -1.1310599765    2.6726712887
C        0.8668789238   -0.5679268411    1.8599344020
C        0.9863098657   -0.5655902799    0.4660947241
H        0.2005523530   -0.1274205818   -0.1430492983
H       -0.0207207630   -0.1274425949    2.3074103753
C        1.7424952170   -1.1297652323    4.1413428617
O        2.5948125588   -1.6433128635    4.8216728059
O        0.5999815756   -0.6453155250    4.6728259354
H        0.7516274357   -0.3386777537    5.5778857632
H        3.7903561504   -2.1366949775    2.6475672596
H        3.9934517324   -2.1295404751    0.1787636650
15   

H        2.2024671321   -1.1019236382   -1.2185598161
C        2.1118879974   -1.1140074220   -0.1358543006
C        3.1222864649   -1.6781082187    0.6485451631
C        3.0053457153   -1.6947170641    2.0444460576
C        1.8736991683   -1.1466472882    2.6777311071
C        0.8627380335   -0.5838318284    1.8704082528
C        0.9821157176   -0.5671663906    0.4766440544
H        0.1928161541   -0.1297390216   -0.1284574501
H       -0.0290849056   -0.1557946962    2.3214027561
C        1.7438414781   -1.1595802722    4.1464666813
O        2.5896860048   -1.6921495693    4.8182448066
O        0.5891282398   -0.6919400859    4.6844710685
H        0.7563898927   -0.2017431636    5.4991409894
H        3.7975855421   -2.1390621162    2.6427033203
H        4.0004403456   -2.1065240683    0.1742148082
15   

H        2.1953550377   -1.0663756946   -1.2108984266
C        2.1066581356   -1.0918866169   -0.1282542018
C        3.1239531664   -1.6550127091    0.6478069054
C        3.0094319188   -1.6892381519    2.0435158945
C        1.8734218897   -1.1600137298    2.6850081636
C        0.8549339985   -0.5989481163    1.8860756261
C        0.9721525461   -0.5642902172    0.4923991236
H        0.1772338441   -0.1286876439   -0.1066530748
H       -0.0417731828   -0.1876304217    2.3427184676
C        1.7466703787   -1.1927006338    4.1535260743
O        2.5937320746   -1.7315294789    4.8159687824
O        0.5843146081   -0.7355471359    4.7051185344
H        0.7467312763   -0.0720023406    5.3842247046
H        3.8067853955   -2.1333026466    2.6352571209
H        4.0054256429   -2.0694145414    0.1671664578
15   

H        2.1905577952   -1.0213623673   -1.1987910614
C        2.1017257295   -1.0645276451   -0.1166924055
C        3.1207490364   -1.6369337886    0.6502422438
C        3.0057188613   -1.6948667081    2.0450533252
C        1.8682656775   -1.1791160534    2.6946367497
C        0.8474483040   -0.6093363610    1.9051270710
C        0.9649203750   -0.5516260629    0.5121748045
H        0.1680726320   -0.1106509082   -0.0803947075
H       -0.0525424793   -0.2119545215    2.3675003574
C        1.7415377547   -1.2388741136    4.1617086621
O        2.5707483659   -1.8108536126    4.8153960276
O        0.6010843426   -0.7318112742    4.7354542568
H        0.7746778590    0.0717176422    5.2340679807
H        3.8038085361   -2.1467710200    2.6299692016
H        4.0036789010   -2.0406620453    0.1631585711
15   

H        2.1933900019   -0.9585608883   -1.1807838772
C        2.1027811104   -1.0221727881   -0.0998078468
C        3.1220306148   -1.6064569517    0.6578014442
C        3.0042560899   -1.6921113745    2.0508726272
C        1.8645654745   -1.1913393970    2.7078748072
C        0.8429118634   -0.6101749889    1.9280113062
C        0.9629629402   -0.5252860572    0.5366055055
H        0.1652738491   -0.0772506932   -0.0495689807
H       -0.0614225400   -0.2288601964    2.3953417839
C        1.7335388424   -1.2860344471    4.1719997394
O        2.5470548902   -1.8862473052    4.8167177345
O        0.6300298214   -0.7166576198    4.7707461311
H        0.8013009899    0.1859379278    5.0515046476
H        3.8016474440   -2.1543770232    2.6287695013
H        4.0068324516   -1.9987450010    0.1647067733
15   

H        2.1961172224   -0.8971856572   -1.1598388220
C        2.1040517338   -0.9792859891   -0.0801943602
C        3.1228025392   -1.5758627331    0.6684108627
C        3.0027409263   -1.6868039532    2.0594099955
C        1.8620022274   -1.1980324138    2.7233561486
C        0.8401469018   -0.6051354872    1.9526580321
C        0.9623575382   -0.4955450501    0.5631029015
H        0.1643624380   -0.0402500021   -0.0171139680
H       -0.0679677639   -0.2380771963    2.4240023036
C        1.7266404034   -1.3255009760    4.1840133022
O        2.5229630600   -1.9593881536    4.8163580767
O        0.6772146513   -0.6878127990    4.8066287795
H        0.8182109921    0.2612737249    4.8588856084
H        3.7989509528   -2.1598166447    2.6303703008
H        4.0085933849   -1.9589576814    0.1697951137
15   

H        2.1842904002   -0.8585421275   -1.1414666015
C        2.0943946751   -0.9525126213   -0.0625680784
C        3.1143826071   -1.5582313398    0.6768478429
C        2.9970370702   -1.6853235950    2.0665810510
C        1.8585803314   -1.2025890976    2.7386679775
C        0.8345081039   -0.6014686615    1.9771908410
C        0.9539642031   -0.4762072890    0.5886204359
H        0.1545132571   -0.0157441771    0.0144367670
H       -0.0748346745   -0.2435512567    2.4530387063
C        1.7265273604   -1.3498802070    4.1973750642
O        2.5033872645   -2.0224477502    4.8141403649
O        0.7378355067   -0.6540096401    4.8415042669
H        0.8071218129    0.2927487769    4.6857321843
H        3.7938347730   -2.1659266391    2.6305001491
H        3.9988810997   -1.9363279446    0.1720627966
15   

H        2.1519697274   -0.8483813179   -1.1305799048
C        2.0684203963   -0.9471849849   -0.0515696972
C        3.0908478373   -1.5603887779    0.6780565244
C        2.9819774363   -1.6937129335    2.0677337697
C        1.8505847378   -1.2086854357    2.7499155790
C        0.8228113235   -0.6012983773    1.9982676263
C        0.9337324535   -0.4703391319    0.6093647638
H        0.1321394836   -0.0054331344    0.0417260441
H       -0.0838750229   -0.2448862029    2.4799880906
C        1.7320711998   -1.3605416134    4.2090352845
O        2.4827789562   -2.0780719343    4.8083070248
O        0.8064597221   -0.6146808271    4.8726823357
H        0.7703691066    0.2911116053    4.5467541279
H        3.7807939461   -2.1795685468    2.6243971089
H        3.9708368588   -1.9392155544    0.1658984592
15   

H        2.1034491730   -0.8647334700   -1.1265586387
C        2.0299600792   -0.9618867868   -0.0466408372
C        3.0549744396   -1.5824899423    0.6727656254
C        2.9596156721   -1.7129669686    2.0635175112
C        1.8403929759   -1.2166652824    2.7574644902
C        0.8086449354   -0.6030536526    2.0161143806
C        0.9059218018   -0.4755912892    0.6256775066
H        0.1023052244   -0.0056197051    0.0650782359
H       -0.0911765527   -0.2394264792    2.5047615486
C        1.7446223341   -1.3600076061    4.2189671693
O        2.4629092781   -2.1234719283    4.8019672369
O        0.8796570551   -0.5710231832    4.8998162704
H        0.7137027303    0.2641688277    4.4462888539
H        3.7609870802   -2.2031430892    2.6127951574
H        3.9269301123   -1.9684364071    0.1521728184
15   

H        2.0483864422   -0.9004149088   -1.1277958261
C        1.9860219506   -0.9912969955   -0.0466173594
C        3.0102295727   -1.6234162698    0.6635167598
C        2.9298570733   -1.7446068235    2.0558633578
C        1.8278827351   -1.2264081541    2.7613003701
C        0.7957517135   -0.6018683004    2.0292905789
C        0.8776578556   -0.4847302516    0.6367622998
H        0.0748432105   -0.0057031601    0.0827087803
H       -0.0926414598   -0.2202679006    2.5243602702
C        1.7595309640   -1.3521489483    4.2260582469
O        2.4386431647   -2.1607922615    4.7957947108
O        0.9540667574   -0.5217591351    4.9195930511
H        0.6435555903    0.2202057428    4.3848023805
H        3.7315623369   -2.2416997795    2.5984876729
H        3.8706100711   -2.0242140333    0.1348914397
15   

H        1.9917977497   -0.9392950886   -1.1330649362
C        1.9428090758   -1.0198700173   -0.0503764290
C        2.9616872602   -1.6704031055    0.6501079448
C        2.8991548056   -1.7770409361    2.0443380470
C        1.8214304369   -1.2257578777    2.7626953337
C        0.7944334273   -0.5812706199    2.0399380178
C        0.8580598967   -0.4798276147    0.6450006402
H        0.0601728042    0.0153258594    0.0980749309
H       -0.0754953571   -0.1674587955    2.5406468395
C        1.7842871622   -1.3319355372    4.2312349782
O        2.4463606446   -2.1623385220    4.7902618717
O        1.0071228433   -0.4880721497    4.9361936299
H        0.5258446077    0.1308077647    4.3713537733
H        3.6984624749   -2.2865953424    2.5789397995
H        3.8049753008   -2.0954977696    0.1129563458
