15   

H        1.8845502325   -1.1969427757   -1.1372784067
C        1.8989897219   -1.1487039251   -0.0516632495
C        2.9606942011   -1.7129155283    0.6605965723
C        2.9827614264   -1.6485462461    2.0588609783
C        1.9377439909   -1.0271728382    2.7676298685
C        0.8788116375   -0.4511547825    2.0341132454
C        0.8609935028   -0.5146553039    0.6358223260
H        0.0426240539   -0.0637818765    0.0809007874
H        0.0688827565    0.0726118123    2.5337519736
C        1.9680883683   -0.9741836753    4.2380957310
O        2.9986688411   -1.1458666493    4.8281181973
O        0.8176975165   -0.7689074310    4.9117198680
H        0.0392111191   -0.8750488027    4.3499162352
H        3.8161069985   -2.0883348082    2.6032830333
H        3.7727971835   -2.2011722965    0.1291527695
15   

H        1.8838573615   -1.2620482920   -1.1393029378
C        1.8976848309   -1.2010764199   -0.0543360737
C        2.9498304587   -1.7725910725    0.6665708235
C        2.9717723114   -1.6906361495    2.0641067086
C        1.9363535402   -1.0425349901    2.7629711119
C        0.8871237512   -0.4605205836    2.0206801167
C        0.8687456680   -0.5425074150    0.6235513439
H        0.0577799933   -0.0857921908    0.0625791867
H        0.0864422289    0.0827226738    2.5151240789
C        1.9669687079   -0.9570535557    4.2318023284
O        2.9799005709   -1.1865343014    4.8318113293
O        0.8201727735   -0.6788308861    4.8963827097
H        0.0378198781   -0.9607343381    4.4072733019
H        3.7988992449   -2.1341969635    2.6148244506
H        3.7553462661   -2.2788900223    0.1420859728
15   

H        1.8962134443   -1.3110821449   -1.1454713863
C        1.9060714562   -1.2407516691   -0.0610535246
C        2.9502955869   -1.8145570652    0.6697486110
C        2.9674283233   -1.7197137842    2.0667229792
C        1.9353380215   -1.0548150463    2.7547447251
C        0.8937839776   -0.4722952618    2.0023865170
C        0.8797244604   -0.5676498902    0.6062416714
H        0.0743151793   -0.1095800741    0.0384479160
H        0.0956979398    0.0808677845    2.4904775858
C        1.9609905227   -0.9456727612    4.2222483695
O        2.9519553600   -1.2277853219    4.8353878664
O        0.8187513595   -0.5924102168    4.8733903761
H        0.0425735843   -1.0278828458    4.5047395272
H        3.7893206205   -2.1638248795    2.6246625156
H        3.7538640470   -2.3318117399    0.1531034815
15   

H        1.9225825840   -1.3320180291   -1.1567541769
C        1.9249407694   -1.2589449201   -0.0725086268
C        2.9612628074   -1.8351690546    0.6677657805
C        2.9685563803   -1.7365642295    2.0647266614
C        1.9348661179   -1.0640504671    2.7429804069
C        0.9008633098   -0.4808168696    1.9810175452
C        0.8962143633   -0.5802840411    0.5852458122
H        0.0958838435   -0.1213307083    0.0110794604
H        0.1002072428    0.0740127350    2.4632557160
C        1.9493342915   -0.9460609383    4.2102323805
O        2.9158055587   -1.2749738308    4.8379288803
O        0.8161862423   -0.5120029357    4.8460307092
H        0.0570692655   -1.0667189309    4.6424410287
H        3.7847167106   -2.1821512624    2.6297095258
H        3.7664441699   -2.3569452718    0.1583193299
15   

H        1.9623592517   -1.3202246691   -1.1735337512
C        1.9534611936   -1.2517158764   -0.0890633868
C        2.9811055603   -1.8322582872    0.6599906828
C        2.9731974726   -1.7400856996    2.0575024167
C        1.9333810664   -1.0684794350    2.7273796033
C        0.9078095834   -0.4822335857    1.9565328131
C        0.9179682622   -0.5755722698    0.5604673133
H        0.1229744530   -0.1147716050   -0.0195224680
H        0.1001780257    0.0668875393    2.4337809705
C        1.9291469593   -0.9584922434    4.1957048625
O        2.8728577852   -1.3252648400    4.8365564315
O        0.8133844471   -0.4410311361    4.8144917730
H        0.0849205742   -1.0676986832    4.8165559905
H        3.7823954802   -2.1896152668    2.6291745947
H        3.7910476395   -2.3527620429    0.1569251641
15   

H        2.0135779607   -1.2842100072   -1.1913346801
C        1.9897551972   -1.2268379478   -0.1064814967
C        3.0069955236   -1.8148007882    0.6509811656
C        2.9788251852   -1.7381262628    2.0492587916
C        1.9295942724   -1.0734407605    2.7115496257
C        0.9143350480   -0.4806531652    1.9320852637
C        0.9443224071   -0.5589255809    0.5354444391
H        0.1558154091   -0.0942174508   -0.0501720028
H        0.0967632575    0.0578889275    2.4044913535
C        1.8997871122   -0.9847514010    4.1816005266
O        2.8238530391   -1.3846174627    4.8327035659
O        0.8135777641   -0.3840208727    4.7813433930
H        0.1343895329   -1.0226726858    5.0130015120
H        3.7793507448   -2.1947319861    2.6273221287
H        3.8240420346   -2.3298577561    0.1539318535
15   

H        2.0656462054   -1.2478165924   -1.2061178855
C        2.0254507530   -1.2028350451   -0.1211972757
C        3.0322736248   -1.7973496960    0.6450307620
C        2.9820827714   -1.7377646539    2.0436072813
C        1.9215828769   -1.0825431250    2.6976598237
C        0.9166564727   -0.4839710602    1.9090680391
C        0.9682887326   -0.5455919160    0.5122918032
H        0.1863761249   -0.0775478552   -0.0794101278
H        0.0879574940    0.0426253436    2.3755856681
C        1.8644648008   -1.0160943889    4.1688027370
O        2.7728100942   -1.4446641856    4.8270544181
O        0.8118864082   -0.3497796604    4.7476219735
H        0.2118289264   -0.9483311713    5.2015783603
H        3.7740356165   -2.2007826437    2.6281719851
H        3.8578332447   -2.3050511516    0.1546201045
15   

H        2.1064432879   -1.2277834187   -1.2160938471
C        2.0513953569   -1.1922742843   -0.1314993643
C        3.0492076414   -1.7906795009    0.6434541470
C        2.9792483656   -1.7440913875    2.0417482148
C        1.9083707512   -1.0967995930    2.6869972788
C        0.9123011986   -0.4951398049    1.8893396984
C        0.9832787223   -0.5443382875    0.4929814273
H        0.2071126630   -0.0747694320   -0.1049986341
H        0.0737532921    0.0216050448    2.3493405225
C        1.8283881370   -1.0446122746    4.1582436765
O        2.7179718929   -1.5063816611    4.8231421996
O        0.8069430448   -0.3321011349    4.7179690519
H        0.3143682362   -0.8555188143    5.3592646619
H        3.7640092718   -2.2109504352    2.6327778362
H        3.8828273309   -2.2918208363    0.1600565834
15   

H        2.1402169041   -1.2149185325   -1.2221844695
C        2.0728490944   -1.1849118078   -0.1381351426
C        3.0675982580   -1.7773533808    0.6453726258
C        2.9815059554   -1.7380212565    2.0430607631
C        1.8972876862   -1.1039809087    2.6790793693
C        0.9039580597   -0.5092356342    1.8727610502
C        0.9912436224   -0.5507648834    0.4771381520
H        0.2166862575   -0.0866338846   -0.1271197564
H        0.0540727590   -0.0051805831    2.3261740593
C        1.7990648920   -1.0595077510    4.1496555281
O        2.6824298442   -1.5240885205    4.8235997111
O        0.7732368745   -0.3583201056    4.6950982431
H        0.4261107457   -0.8002211738    5.4800723659
H        3.7636246882   -2.2006913837    2.6407434233
H        3.9111013131   -2.2685762917    0.1690469405
15   

H        2.1602148147   -1.2026490866   -1.2262248951
C        2.0836572124   -1.1781758241   -0.1426555153
C        3.0758580680   -1.7675310594    0.6464472243
C        2.9776949492   -1.7355526217    2.0435566420
C        1.8839172513   -1.1118383719    2.6732783748
C        0.8928552494   -0.5209157206    1.8614180185
C        0.9922309376   -0.5549491167    0.4664184052
H        0.2190215803   -0.0940478950   -0.1420069030
H        0.0348178725   -0.0268459762    2.3105964586
C        1.7732870249   -1.0739648113    4.1431193128
O        2.6438235577   -1.5544947917    4.8245015410
O        0.7398915337   -0.3917709077    4.6809002893
H        0.5372040601   -0.7272520831    5.5655056809
H        3.7575445999   -2.1962094966    2.6456786452
H        3.9265160657   -2.2509407612    0.1749008498
15   

H        2.1791630066   -1.1887962295   -1.2286758959
C        2.0953858197   -1.1690422841   -0.1455495984
C        3.0881204219   -1.7517008519    0.6479196826
C        2.9804281647   -1.7260407068    2.0444825194
C        1.8763466286   -1.1156710441    2.6690369346
C        0.8844930236   -0.5320618361    1.8529606927
C        0.9936017982   -0.5593261535    0.4585648112
H        0.2194865443   -0.1043280587   -0.1531376880
H        0.0178627844   -0.0499573579    2.2987515086
C        1.7556122556   -1.0841983111    4.1380086188
O        2.6168413565   -1.5725990153    4.8267423208
O        0.6983528723   -0.4453050078    4.6712337923
H        0.6316876847   -0.6531752277    5.6154516743
H        3.7601813312   -2.1820482137    2.6502237800
H        3.9462745337   -2.2254186659    0.1801507484
15   

H        2.1947092827   -1.1718834321   -1.2287385259
C        2.1059431591   -1.1574053600   -0.1459280116
C        3.1015682908   -1.7322138244    0.6496834572
C        2.9872630515   -1.7136294817    2.0458506317
C        1.8733528510   -1.1187091865    2.6677265013
C        0.8783351616   -0.5435166014    1.8495569876
C        0.9943544875   -0.5631266348    0.4556079286
H        0.2175710420   -0.1149024726   -0.1577146342
H        0.0034069066   -0.0748171181    2.2934743411
C        1.7453914501   -1.0948628721    4.1361247707
O        2.6008503096   -1.5892390423    4.8282279659
O        0.6573532767   -0.5109993448    4.6661296362
H        0.6999540803   -0.5653297355    5.6333404788
H        3.7687563787   -2.1642672334    2.6533531742
H        3.9667852865   -2.1948487635    0.1838446313
15   

H        2.2007635359   -1.1496476359   -1.2274291756
C        2.1101984651   -1.1421947145   -0.1446947520
C        3.1110379411   -1.7101650913    0.6492425584
C        2.9942791972   -1.7009352722    2.0452819533
C        1.8724214833   -1.1227801320    2.6688101067
C        0.8718575650   -0.5549562380    1.8522308296
C        0.9906679748   -0.5646393261    0.4583950093
H        0.2094912243   -0.1224385367   -0.1537152650
H       -0.0100704679   -0.1005747437    2.2971382083
C        1.7418442730   -1.1091455964    4.1372136933
O        2.5956126918   -1.6110677238    4.8255151724
O        0.6233657383   -0.5811850372    4.6669061589
H        0.7381070498   -0.4603452269    5.6215966941
H        3.7794771879   -2.1470754077    2.6513375754
H        3.9819465246   -2.1607688299    0.1822100797
15   

H        2.2023028072   -1.1263748092   -1.2237942846
C        2.1115896444   -1.1275544574   -0.1410420761
C        3.1179341747   -1.6912767420    0.6488776176
C        3.0009059173   -1.6934860270    2.0448979769
C        1.8731154668   -1.1314118438    2.6726558230
C        0.8666664919   -0.5683753045    1.8599067281
C        0.9860213277   -0.5662021658    0.4660604427
H        0.2002412616   -0.1280831121   -0.1430909234
H       -0.0208903637   -0.1278026246    2.3073806257
C        1.7424952170   -1.1297652323    4.1413428617
O        2.5948125588   -1.6433128635    4.8216728059
O        0.5999815756   -0.6453155250    4.6728259354
H        0.7516274357   -0.3386777537    5.5778857632
H        3.7901918761   -2.1370411930    2.6475650752
H        3.9931449963   -2.1301902467    0.1787490056
15   

H        2.2019020270   -1.1031434035   -1.2186238302
C        2.1113979798   -1.1150612719   -0.1359102245
C        3.1218509975   -1.6790406437    0.6485063497
C        3.0050262355   -1.6953981087    2.0444201994
C        1.8734443551   -1.1471898434    2.6777021739
C        0.8624158700   -0.5845221681    1.8703599240
C        0.9816774646   -0.5681083722    0.4765830666
H        0.1923436253   -0.1307582550   -0.1285295599
H       -0.0293416339   -0.1563479953    2.3213537320
C        1.7438414781   -1.1595802722    4.1464666813
O        2.5896860048   -1.6921495693    4.8182448066
O        0.5891282398   -0.6919400859    4.6844710685
H        0.7563898927   -0.2017431636    5.4991409894
H        3.7973356886   -2.1395976219    2.6426930733
H        3.9999731940   -2.1075267891    0.1741809947
15   

H        2.1945888437   -1.0680398539   -1.2110054367
C        2.1059944047   -1.0933247002   -0.1283475644
C        3.1233625658   -1.6562881892    0.6477357084
C        3.0089989783   -1.6901709500    2.0434663285
C        1.8730779360   -1.1607547735    2.6849596941
C        0.8544998844   -0.5998876255    1.8860019379
C        0.9715605315   -0.5655729081    0.4923039673
H        0.1765957753   -0.1300733414   -0.1067619560
H       -0.0421177566   -0.1883804463    2.3426498473
C        1.7466703787   -1.1927006338    4.1535260743
O        2.5937320746   -1.7315294789    4.8159687824
O        0.5843146081   -0.7355471359    4.7051185344
H        0.7467312763   -0.0720023406    5.3842247046
H        3.8064456174   -2.1340390281    2.6352289891
H        4.0047907868   -2.0707879328    0.1670987467
15   

H        2.1894951483   -1.0233842467   -1.1989664109
C        2.1008099800   -1.0662768217   -0.1168449181
C        3.1199382826   -1.6384876972    0.6500955499
C        3.0051291926   -1.6960053206    2.0449419584
C        1.8677990533   -1.1800208342    2.6945571985
C        0.8468549184   -0.6104804548    1.9050387439
C        0.9641054739   -0.5531861929    0.5120504109
H        0.1671899321   -0.1123339544   -0.0805191455
H       -0.0530152433   -0.2128658702    2.3674463867
C        1.7415377547   -1.2388741136    4.1617086621
O        2.5707483659   -1.8108536126    4.8153960276
O        0.6010843426   -0.7318112742    4.7354542568
H        0.7746778590    0.0717176422    5.2340679807
H        3.8033451438   -2.1476703621    2.6298700120
H        4.0028042811   -2.0423345334    0.1629945087
15   

H        2.1920719649   -0.9607159034   -1.1810338372
C        2.1016509979   -1.0240398849   -0.1000252242
C        3.1210330575   -1.6081220145    0.6575605180
C        3.0035354961   -1.6933353085    2.0506813959
C        1.8639990238   -1.1923099628    2.7077595476
C        0.8421881479   -0.6113950756    1.9279177121
C        0.9619614772   -0.5269483455    0.5364600097
H        0.1641850671   -0.0790385971   -0.0496911493
H       -0.0619993520   -0.2298263542    2.3953244660
C        1.7335388424   -1.2860344471    4.1719997394
O        2.5470548902   -1.8862473052    4.8167177345
O        0.6300298214   -0.7166576198    4.7707461311
H        0.8013009899    0.1859379278    5.0515046476
H        3.8010781853   -2.1553473022    2.6285721865
H        4.0057511972   -2.0005381265    0.1644174211
15   

H        2.1947132123   -0.8991316530   -1.1601231794
C        2.1028534133   -0.9809750397   -0.0804417315
C        3.1217469729   -1.5773764938    0.6681072757
C        3.0019830043   -1.6879211766    2.0591621995
C        1.8614106287   -1.1989158780    2.7232232571
C        0.8393884816   -0.6062376196    1.9525811989
C        0.9613003550   -0.4970451258    0.5629666323
H        0.1632095444   -0.0418572410   -0.0172019662
H       -0.0685720269   -0.2389432553    2.4240375108
C        1.7266404034   -1.3255009760    4.1840133022
O        2.5229630600   -1.9593881536    4.8163580767
O        0.6772146513   -0.6878127990    4.8066287795
H        0.8182109921    0.2612737249    4.8588856084
H        3.7983487539   -2.1607068072    2.6300936091
H        4.0074438593   -1.9605892081    0.1694147047
15   

H        2.1830110412   -0.8600666707   -1.1417205810
C        2.0933065246   -0.9538386810   -0.0627888982
C        3.1134249292   -1.5594263099    0.6765524866
C        2.9963524091   -1.6862097955    2.0663351640
C        1.8580492887   -1.2032880519    2.7385488636
C        0.8338262289   -0.6023331090    1.9771475489
C        0.9530081080   -0.4773820341    0.5885234389
H        0.1534684872   -0.0169974776    0.0144010179
H       -0.0753774965   -0.2442252072    2.4531167094
C        1.7265273604   -1.3498802070    4.1973750642
O        2.5033872645   -2.0224477502    4.8141403649
O        0.7378355067   -0.6540096401    4.8415042669
H        0.8071218129    0.2927487769    4.6857321843
H        3.7932880259   -2.1666368538    2.6302097706
H        3.9978340604   -1.9376168639    0.1716806965
15   

H        2.1509381384   -0.8494502386   -1.1307655216
C        2.0675452094   -0.9481169482   -0.0517306928
C        3.0900780284   -1.5612324030    0.6778201919
C        2.9814288800   -1.6943416576    2.0675336438
C        1.8501612639   -1.2091810876    2.7498293729
C        0.8222669463   -0.6019069198    1.9982587509
C        0.9329658170   -0.4711638890    0.6093157512
H        0.1313004328   -0.0063098834    0.0417373997
H       -0.0843084475   -0.2453584302    2.4800862836
C        1.7320711998   -1.3605416134    4.2090352845
O        2.4827789562   -2.0780719343    4.8083070248
O        0.8064597221   -0.6146808271    4.8726823357
H        0.7703691066    0.2911116053    4.5467541279
H        3.7803544806   -2.1800745050    2.6241480701
H        3.9699927940   -1.9401253557    0.1655829456
15   

H        2.1027271179   -0.8653925038   -1.1266682041
C        2.0293485060   -0.9624629512   -0.0467354405
C        3.0544373969   -1.5830117419    0.6726101922
C        2.9592340608   -1.7133574322    2.0633836858
C        1.8400987640   -1.2169748933    2.7574147947
C        0.8082656347   -0.6034333295    2.0161274442
C        0.9053864224   -0.4761031677    0.6256660087
H        0.1017181106   -0.0061635568    0.0651145958
H       -0.0914796421   -0.2397227754    2.5048523719
C        1.7446223341   -1.3600076061    4.2189671693
O        2.4629092781   -2.1234719283    4.8019672369
O        0.8796570551   -0.5710231832    4.8998162704
H        0.7137027303    0.2641688277    4.4462888539
H        3.7606815147   -2.2034565560    2.6126195399
H        3.9263406249   -1.9689974069    0.1519581679
15   

H        2.0480121643   -0.9007167349   -1.1278406912
C        1.9857052330   -0.9915617667   -0.0466557887
C        3.0099525924   -1.6236544741    0.6634437937
C        2.9296608455   -1.7447855352    2.0557994691
C        1.8277308740   -1.2265522217    2.7612809580
C        0.7955546087   -0.6020466406    2.0293068705
C        0.8773797664   -0.4849684141    0.6367679688
H        0.0745372775   -0.0059573287    0.0827412157
H       -0.0928005277   -0.2204101849    2.5244168340
C        1.7595309640   -1.3521489483    4.2260582469
O        2.4386431647   -2.1607922615    4.7957947108
O        0.9540667574   -0.5217591351    4.9195930511
H        0.6435555903    0.2202057428    4.3848023805
H        3.7314061526   -2.2418412232    2.5983990366
H        3.8703064557   -2.0244679713    0.1347868090
15   

H        1.9918048899   -0.9392894120   -1.1330642761
C        1.9428151314   -1.0198650370   -0.0503758689
C        2.9616925008   -1.6703987484    0.6501091280
C        2.8991585103   -1.7770377038    2.0443390916
C        1.8214333605   -1.2257551755    2.7626956007
C        0.7944372877   -0.5812671202    2.0399376419
C        0.8580652927   -0.4798229958    0.6450004325
H        0.0601787785    0.0153308938    0.0980742514
H       -0.0754921535   -0.1674558249    2.5406457637
C        1.7842871622   -1.3319355372    4.2312349782
O        2.4463606446   -2.1623385220    4.7902618717
O        1.0071228433   -0.4880721497    4.9361936299
H        0.5258446077    0.1308077647    4.3713537733
H        3.6984653650   -2.2865929019    2.5789412995
H        3.8049809992   -2.0954932041    0.1129580856
