15   

H        2.1271730453   -1.0610756455   -1.2209014135
C        1.9701895995   -1.0475291543   -0.1458266713
C        3.0517428732   -1.2090818450    0.7250385010
C        2.8496089340   -1.1921315220    2.1114825651
C        1.5750277870   -1.0076546219    2.6408534493
C        0.4892325487   -0.8565615144    1.7591072192
C        0.6850929540   -0.8725807132    0.3736033559
H       -0.1620506177   -0.7512109414   -0.2955391697
H       -0.5139330261   -0.7261668466    2.1592565748
C        1.3363210858   -1.0078906867    4.1002309048
O        0.2532050539   -1.1124340541    4.6203452440
O        2.4619734636   -0.8943814307    4.8444932867
H        2.1478007671   -0.9106856966    5.7603516735
H        3.7101016867   -1.3264421485    2.7620970156
H        4.0522054264   -1.3500597708    0.3259772653
15   

H        2.1246496178   -1.0335580523   -1.2187924255
C        1.9683909094   -1.0309821180   -0.1435314229
C        3.0460755478   -1.2339523076    0.7240822880
C        2.8439259868   -1.2315912278    2.1105048385
C        1.5758537613   -1.0141836917    2.6412106212
C        0.4920515269   -0.8312664243    1.7648207030
C        0.6874149807   -0.8324167640    0.3789798966
H       -0.1568487174   -0.6835757413   -0.2882392695
H       -0.5072636208   -0.6894663218    2.1703975619
C        1.3412581693   -1.0533494998    4.1018494937
O        0.3073782575   -1.3862224383    4.6242210238
O        2.4261759115   -0.7149028509    4.8376133101
H        2.1290457688   -0.7916188441    5.7560149774
H        3.6941599613   -1.4007061148    2.7666499850
H        4.0421698346   -1.3970807558    0.3225634469
15   

H        2.1177449279   -1.0080961652   -1.2164917937
C        1.9639255317   -1.0165762098   -0.1409094673
C        3.0381742167   -1.2615943408    0.7207678693
C        2.8382729610   -1.2736887314    2.1073345668
C        1.5785464729   -1.0245832249    2.6418253198
C        0.4961199569   -0.8062762114    1.7737746443
C        0.6889192404   -0.7926000765    0.3874307101
H       -0.1526107033   -0.6144353413   -0.2760275002
H       -0.4980997789   -0.6504512198    2.1861060216
C        1.3535898644   -1.0994205047    4.1052576715
O        0.4186272776   -1.6454773707    4.6319184925
O        2.3541362983   -0.5472898644    4.8298454177
H        2.0881484761   -0.6791242138    5.7514258295
H        3.6787888717   -1.4750765864    2.7669377752
H        4.0284918335   -1.4467005173    0.3145360850
15   

H        2.1067605508   -0.9837237154   -1.2155332273
C        1.9581514238   -1.0062204221   -0.1394207240
C        3.0296494099   -1.2973249738    0.7117954552
C        2.8360243652   -1.3272288295    2.0988935466
C        1.5870257975   -1.0499551465    2.6422064415
C        0.5058422148   -0.7862417180    1.7866925454
C        0.6923847303   -0.7543508848    0.3996203752
H       -0.1466320114   -0.5407498101   -0.2565023248
H       -0.4808916496   -0.6098393607    2.2079206940
C        1.3771931461   -1.1498765936    4.1105319093
O        0.5893773061   -1.8830917488    4.6473898020
O        2.2370599720   -0.3838117998    4.8190324142
H        2.0116243660   -0.5557872777    5.7446717603
H        3.6699136738   -1.5622554227    2.7556338298
H        4.0120832480   -1.5040850805    0.2969633145
15   

H        2.0896331618   -0.9507903609   -1.2157595523
C        1.9514577906   -0.9933122995   -0.1388610781
C        3.0217381284   -1.3390446168    0.6934664505
C        2.8415350846   -1.3943120820    2.0815637010
C        1.6068433651   -1.0943036303    2.6431602318
C        0.5275842635   -0.7671067840    1.8080133721
C        0.7008689863   -0.7096706275    0.4199561939
H       -0.1361614548   -0.4497453451   -0.2218163023
H       -0.4463801721   -0.5603676868    2.2442928853
C        1.4183744819   -1.2028470139    4.1181755102
O        0.8236908824   -2.0837035743    4.6786892923
O        2.0538799236   -0.2230816986    4.7977142112
H        1.8716596260   -0.4128218003    5.7292572365
H        3.6732241413   -1.6688434916    2.7254201004
H        3.9926313774   -1.5674538392    0.2631016647
15   

H        2.0780868674   -0.9098248586   -1.2148586168
C        1.9525835225   -0.9734707009   -0.1374505148
C        3.0178275759   -1.3854872074    0.6707002831
C        2.8537545594   -1.4680159714    2.0594546257
C        1.6377601395   -1.1415041076    2.6452017903
C        0.5679591442   -0.7298469185    1.8353317955
C        0.7247766923   -0.6452632922    0.4467129125
H       -0.1065118694   -0.3263710616   -0.1756232663
H       -0.3858865458   -0.4777537264    2.2914383254
C        1.4730089987   -1.2405544486    4.1258747246
O        1.1012532053   -2.2147593928    4.7218263265
O        1.7928660909   -0.0917309739    4.7602209334
H        1.6470277691   -0.2803551245    5.6983165610
H        3.6824125409   -1.7907054516    2.6845548215
H        3.9726394176   -1.6427917479    0.2210765849
15   

H        2.0619300127   -0.8790494198   -1.2142884119
C        1.9514688888   -0.9557137667   -0.1360818910
C        3.0114372410   -1.4250709545    0.6471003803
C        2.8664447572   -1.5247666222    2.0368281587
C        1.6710777304   -1.1693990617    2.6487218174
C        0.6126023912   -0.6836219751    1.8642054649
C        0.7500734285   -0.5820558240    0.4747114289
H       -0.0749029442   -0.2118187606   -0.1272486843
H       -0.3175967648   -0.3865709672    2.3416221094
C        1.5383119488   -1.2544280516    4.1318157707
O        1.4097146879   -2.2666544531    4.7662480239
O        1.5123008317   -0.0369476051    4.7172106821
H        1.4075075449   -0.2213765753    5.6616545077
H        3.6920747485   -1.8895828876    2.6426977075
H        3.9478265418   -1.7126184846    0.1774794234
15   

H        2.0487281972   -0.8846211091   -1.2172488922
C        1.9501732447   -0.9588596079   -0.1377204781
C        3.0022849716   -1.4686812040    0.6303329461
C        2.8726607065   -1.5653425127    2.0217252364
C        1.6979208442   -1.1710126480    2.6518016138
C        0.6503152146   -0.6382454155    1.8810806655
C        0.7728985040   -0.5398082956    0.4900044959
H       -0.0447276125   -0.1354385492   -0.0998981584
H       -0.2602933392   -0.3018335175    2.3702924283
C        1.5964290045   -1.2427548451    4.1339544843
O        1.7085418184   -2.2410864406    4.7950790157
O        1.2701426134   -0.0543671977    4.6902017746
H        1.2142090844   -0.2364196077    5.6393666757
H        3.6927049589   -1.9612305427    2.6159929562
H        3.9210358097   -1.7898442347    0.1478198090
15   

H        2.0333480059   -0.9131402802   -1.2227800396
C        1.9445721823   -0.9746813900   -0.1416054092
C        2.9880040546   -1.5117234075    0.6193108776
C        2.8713850995   -1.5919213787    2.0127836059
C        1.7174240984   -1.1528007744    2.6543384806
C        0.6776824703   -0.5944719115    1.8881686815
C        0.7885129233   -0.5127329350    0.4950170127
H       -0.0224196952   -0.0880496041   -0.0898372328
H       -0.2191297948   -0.2253043472    2.3794632693
C        1.6441545613   -1.2154775829    4.1344176728
O        1.9849076384   -2.1537229375    4.8074671940
O        1.0718748496   -0.1194488619    4.6837195196
H        1.0708129168   -0.2971125792    5.6354746134
H        3.6854929880   -2.0098006139    2.6006347398
H        3.8902878448   -1.8671375240    0.1297716306
15   

H        2.0177214516   -0.9530386713   -1.2296521007
C        1.9381291101   -0.9963333577   -0.1468787815
C        2.9725888341   -1.5530641149    0.6115626610
C        2.8683765349   -1.6096800419    2.0070876944
C        1.7361895746   -1.1234446828    2.6558132027
C        0.7023970912   -0.5507017997    1.8890972727
C        0.8022460795   -0.4928422089    0.4939287051
H       -0.0027080392   -0.0551391632   -0.0896011089
H       -0.1835729353   -0.1515383985    2.3766152600
C        1.6838699788   -1.1792633719    4.1339537702
O        2.2303402313   -2.0124054923    4.8120087637
O        0.9059725882   -0.2185083679    4.6851733919
H        0.9568716506   -0.3830069480    5.6380261257
H        3.6777040784   -2.0441232045    2.5899185094
H        3.8587784831   -1.9425880208    0.1185777515
15   

H        1.9967624346   -0.9985487870   -1.2355066696
C        1.9271956042   -1.0218994114   -0.1514282893
C        2.9532646321   -1.5945606605    0.6058808659
C        2.8626774277   -1.6251127168    2.0031200482
C        1.7537231703   -1.0925346466    2.6572694761
C        0.7245635824   -0.5100195805    1.8889142528
C        0.8119453022   -0.4783032305    0.4920856414
H        0.0122841071   -0.0302802598   -0.0909041272
H       -0.1498626454   -0.0810753899    2.3718313557
C        1.7167859944   -1.1395533839    4.1348693982
O        2.4373567390   -1.8226228019    4.8195694351
O        0.7649311573   -0.3497072551    4.6851518969
H        0.8588007655   -0.4876084799    5.6390228237
H        3.6683853125   -2.0734524107    2.5805920385
H        3.8229864979   -2.0170558615    0.1107123140
15   

H        1.9716837926   -1.0475019130   -1.2388639969
C        1.9132133475   -1.0499015285   -0.1538816182
C        2.9316319714   -1.6363231938    0.6029275432
C        2.8559176633   -1.6392787990    2.0013721641
C        1.7711758701   -1.0614683951    2.6583320889
C        0.7462428284   -0.4710201847    1.8892632670
C        0.8193502453   -0.4666599465    0.4912754721
H        0.0247346866   -0.0093775057   -0.0914311650
H       -0.1134980091   -0.0118416676    2.3706635437
C        1.7452535820   -1.0947464362    4.1362315885
O        2.6010901807   -1.5895811598    4.8276185173
O        0.6531705468   -0.5093032369    4.6816360781
H        0.7779856453   -0.6089904226    5.6367401847
H        3.6566943205   -2.0997823812    2.5761518013
H        3.7841533800   -2.0910886747    0.1064278024
15   

H        1.9428082603   -1.0963258425   -1.2386207486
C        1.8962408328   -1.0779958578   -0.1532147320
C        2.9074102369   -1.6776607161    0.6032335769
C        2.8472829559   -1.6530115717    2.0022310415
C        1.7877701653   -1.0308317694    2.6592356365
C        0.7669194176   -0.4332575822    1.8913605361
C        0.8243409176   -0.4558363587    0.4928024650
H        0.0346411499    0.0102406796   -0.0896116087
H       -0.0752432649    0.0541578066    2.3761404096
C        1.7680236527   -1.0466950957    4.1378279895
O        2.7114770644   -1.3258307833    4.8353945750
O        0.5776514807   -0.6891162755    4.6743416146
H        0.7186256303   -0.7416486643    5.6309317239
H        3.6406252599   -2.1237622400    2.5789886741
H        3.7419411309   -2.1639323110    0.1060330762
15   

H        1.9153641564   -1.1385418729   -1.2355605188
C        1.8803414696   -1.1010626174   -0.1502144213
C        2.8824905510   -1.7163504017    0.6063618085
C        2.8371716160   -1.6662333475    2.0052864486
C        1.8045831785   -0.9994947031    2.6597614547
C        0.7894773224   -0.3928857726    1.8941242357
C        0.8314071966   -0.4399933672    0.4956122872
H        0.0476218613    0.0360742223   -0.0866954751
H       -0.0337941364    0.1199069096    2.3852615541
C        1.7840533419   -0.9976994261    4.1397371598
O        2.7616547916   -1.0494982360    4.8426783265
O        0.5419984255   -0.8781428391    4.6641638920
H        0.6825569811   -0.8801510879    5.6221921220
H        3.6205535702   -2.1476981060    2.5866194762
H        3.6978778224   -2.2341902458    0.1092897960
15   

H        1.8897885224   -1.1733116700   -1.2310667779
C        1.8653335054   -1.1182843640   -0.1461792331
C        2.8555595813   -1.7517523648    0.6116652831
C        2.8236111673   -1.6785019759    2.0100256110
C        1.8194261163   -0.9679417384    2.6602269800
C        0.8133159931   -0.3486615786    1.8959988903
C        0.8408644409   -0.4178541811    0.4980397626
H        0.0649308483    0.0702587986   -0.0847937578
H        0.0095145279    0.1890701755    2.3926628319
C        1.7934632355   -0.9448832003    4.1430370010
O        2.7502839752   -0.7666230362    4.8516483970
O        0.5468180453   -1.0710146228    4.6534115609
H        0.6708105764   -1.0220412318    5.6123853553
H        3.5954065059   -2.1730652162    2.5954338573
H        3.6506068926   -2.3015119952    0.1159354830
15   

H        1.8737394161   -1.2017561908   -1.2273502493
C        1.8548440926   -1.1316265497   -0.1432234897
C        2.8264986680   -1.7872614313    0.6201856230
C        2.8015836751   -1.6941567534    2.0176222523
C        1.8244835839   -0.9416422295    2.6591073548
C        0.8359084320   -0.3018934885    1.8917938341
C        0.8555569414   -0.3900063120    0.4947757581
H        0.0933598636    0.1148180543   -0.0919272977
H        0.0524911752    0.2650286999    2.3883476448
C        1.7910699962   -0.8900048866    4.1451899715
O        2.6770102737   -0.4859195492    4.8509845332
O        0.5974156846   -1.2735574370    4.6513677040
H        0.6959096185   -1.1757382276    5.6094470305
H        3.5577835509   -2.2057506095    2.6082045964
H        3.6011895685   -2.3695059595    0.1293566961
15   

H        1.8759942267   -1.2160236345   -1.2250215947
C        1.8528324739   -1.1344743730   -0.1417757151
C        2.7940655910   -1.8190166441    0.6345525883
C        2.7635605273   -1.7112254378    2.0308891714
C        1.8088804705   -0.9196584023    2.6566764989
C        0.8545996274   -0.2450485653    1.8781747253
C        0.8795040073   -0.3474881772    0.4821827695
H        0.1425633587    0.1822969861   -0.1146954761
H        0.0943203191    0.3599500589    2.3653999930
C        1.7699864762   -0.8345619914    4.1451889787
O        2.5399579867   -0.2183024690    4.8314923067
O        0.7111689841   -1.4888467618    4.6709640093
H        0.7857293392   -1.3482306196    5.6257611986
H        3.4961621583   -2.2446379519    2.6313886649
H        3.5494041291   -2.4346844221    0.1544804826
15   

H        1.9106465399   -1.2132796114   -1.2245241001
C        1.8684754645   -1.1259017094   -0.1423056366
C        2.7633789177   -1.8466281922    0.6560121860
C        2.7082077333   -1.7317931572    2.0510529156
C        1.7676188039   -0.9061614372    2.6526979286
C        0.8706339638   -0.1813077489    1.8528038298
C        0.9201931501   -0.2911093445    0.4579934418
H        0.2238368615    0.2723220980   -0.1565536917
H        0.1363160665    0.4686378928    2.3215827078
C        1.7235761227   -0.7864501195    4.1403386036
O        2.3327034541    0.0170083868    4.7929140153
O        0.9060189893   -1.6989712907    4.7090252518
H        0.9623962020   -1.5211176685    5.6587941675
H        3.4062956740   -2.2911159490    2.6686159082
H        3.5024428368   -2.4949347426    0.1939343822
15   

H        1.9514611803   -1.2012021408   -1.2237354383
C        1.8846857286   -1.1143252661   -0.1427154026
C        2.7255929835   -1.8757525301    0.6763715835
C        2.6387882206   -1.7617532588    2.0698602660
C        1.7112776663   -0.9050374246    2.6491887030
C        0.8813242570   -0.1260215264    1.8284330878
C        0.9626033120   -0.2353282847    0.4350648758
H        0.3135536019    0.3652762417   -0.1958564557
H        0.1751450618    0.5660274619    2.2801705483
C        1.6627576143   -0.7599503163    4.1322825295
O        2.0749834754    0.1840236460    4.7509227253
O        1.1553113680   -1.8515653233    4.7458418799
H        1.1933965981   -1.6420436619    5.6901025103
H        3.2972786450   -2.3501739843    2.7037188140
H        3.4482924775   -2.5539656197    0.2316798175
15   

H        1.9884322504   -1.1981718821   -1.2223635744
C        1.8991830286   -1.1130900450   -0.1428245290
C        2.6940528825   -1.9055304158    0.6924233246
C        2.5786730363   -1.7936296870    2.0840381168
C        1.6632396550   -0.9118325715    2.6466059170
C        0.8864723185   -0.0964226300    1.8086645025
C        0.9963928188   -0.2033946933    0.4171693315
H        0.3858289863    0.4242337858   -0.2257659738
H        0.1995298683    0.6232946764    2.2471981116
C        1.5962129775   -0.7529458054    4.1231748595
O        1.7812220763    0.2768979128    4.7161909590
O        1.3883458902   -1.9219443597    4.7700387283
H        1.3885155091   -1.6850537180    5.7087014862
H        3.2045959865   -2.4055556174    2.7287735642
H        3.4041910635   -2.6057745338    0.2618729445
15   

H        2.0149216113   -1.1944442706   -1.2224271063
C        1.9110579564   -1.1123891193   -0.1439610888
C        2.6681555453   -1.9321833967    0.6994086806
C        2.5343863698   -1.8244260447    2.0897928548
C        1.6372779206   -0.9181442789    2.6452156359
C        0.8985684309   -0.0769154388    1.7970061444
C        1.0272051423   -0.1795217007    0.4069584276
H        0.4454533032    0.4694415367   -0.2415040841
H        0.2252660495    0.6605112622    2.2278625433
C        1.5411089085   -0.7595789055    4.1160822823
O        1.4896697931    0.2955813614    4.6937461185
O        1.5887157175   -1.9344694981    4.7856601514
H        1.5334250862   -1.6844558411    5.7194033655
H        3.1353320937   -2.4599893161    2.7355668274
H        3.3639639159   -2.6510315243    0.2761763316
15   

H        2.0401907122   -1.1866233937   -1.2236677140
C        1.9256882518   -1.1083724566   -0.1459963263
C        2.6489149458   -1.9537306095    0.7011561871
C        2.5017305012   -1.8517560583    2.0907516065
C        1.6270662862   -0.9213713044    2.6441669162
C        0.9177631890   -0.0597451821    1.7893951397
C        1.0602876992   -0.1566557442    0.4005041951
H        0.5019666860    0.5104022909   -0.2502088571
H        0.2537796244    0.6897796894    2.2143291525
C        1.4956755607   -0.7734985858    4.1107632085
O        1.2113619973    0.2520745689    4.6764041840
O        1.7686334447   -1.9065748191    4.7996560143
H        1.6502189061   -1.6594030922    5.7283741763
H        3.0806733219   -2.5125348767    2.7312363247
H        3.3291001868   -2.6893841015    0.2814014066
15   

H        2.0648547447   -1.1740145169   -1.2244986371
C        1.9406968596   -1.1009782687   -0.1475290288
C        2.6308887626   -1.9717996016    0.7007446805
C        2.4713793375   -1.8776009104    2.0896492677
C        1.6211153547   -0.9241296484    2.6435138879
C        0.9377949436   -0.0436268605    1.7850007253
C        1.0931446357   -0.1330636136    0.3971583730
H        0.5565610552    0.5511375259   -0.2540569817
H        0.2815444078    0.7154854430    2.2051759145
C        1.4546566499   -0.7934309211    4.1070616868
O        0.9511186087    0.1524007142    4.6606327138
O        1.9392676719   -1.8416878664    4.8143195484
H        1.7607605171   -1.6121245803    5.7380093196
H        3.0265237135   -2.5652979154    2.7226372904
H        3.2946141237   -2.7230497351    0.2822451622
15   

H        2.0869134036   -1.1573568230   -1.2238971980
C        1.9531978423   -1.0915837602   -0.1476030427
C        2.6109762804   -1.9883131210    0.6991181672
C        2.4389648236   -1.9040534453    2.0872114912
C        1.6135344168   -0.9298471498    2.6431869150
C        0.9544077478   -0.0303193625    1.7846256566
C        1.1225171806   -0.1098426740    0.3977283111
H        0.6071071182    0.5915443775   -0.2523109823
H        0.3061436559    0.7364525209    2.2033544813
C        1.4158270656   -0.8205743991    4.1043664813
O        0.7150869652    0.0001981621    4.6434598662
O        2.0995468666   -1.7382239206    4.8286323120
H        1.8698879303   -1.5386220257    5.7479960435
H        2.9660070526   -2.6178585295    2.7151962448
H        3.2580458868   -2.7535749937    0.2799109773
