15   

H        1.8845502554   -1.1969432026   -1.1372783799
C        1.8989897364   -1.1487042792   -0.0516632257
C        2.9606941660   -1.7129159096    0.6605966486
C        2.9827613759   -1.6485465364    2.0588610500
C        1.9377439825   -1.0271729865    2.7676298791
C        0.8788116833   -0.4511548991    2.0341132051
C        0.8609935553   -0.5146555317    0.6358222912
H        0.0426241456   -0.0637820823    0.0809007136
H        0.0688828518    0.0726118157    2.5337518893
C        1.9680883683   -0.9741836753    4.2380957310
O        2.9986688411   -1.1458666493    4.8281181973
O        0.8176975165   -0.7689074310    4.9117198680
H        0.0392111191   -0.8750488027    4.3499162352
H        3.8161069066   -2.0883351335    2.6032831421
H        3.7727971201   -2.2011727698    0.1291528882
15   

H        1.8838577289   -1.2620479809   -1.1393029761
C        1.8976851002   -1.2010761999   -0.0543361036
C        2.9498306453   -1.7725909426    0.6665708425
C        2.9717723790   -1.6906361335    2.0641067352
C        1.9363535754   -1.0425349939    2.7629711090
C        0.8871238558   -0.4605205111    2.0206800706
C        0.8687458948   -0.5425072296    0.6235512868
H        0.0577802844   -0.0857919394    0.0625790905
H        0.0864423083    0.0827227350    2.5151240094
C        1.9669687079   -0.9570535557    4.2318023284
O        2.9799005709   -1.1865343014    4.8318113293
O        0.8201727735   -0.6788308861    4.8963827097
H        0.0378198781   -0.9607343381    4.4072733019
H        3.7988992630   -2.1341970046    2.6148245076
H        3.7553464886   -2.2788898684    0.1420860259
15   

H        1.8962132687   -1.3110826513   -1.1454713475
C        1.9060713242   -1.2407520725   -0.0610534924
C        2.9502954423   -1.8145574657    0.6697486668
C        2.9674282254   -1.7197140598    2.0667230277
C        1.9353379741   -1.0548152059    2.7547447401
C        0.8937839471   -0.4722954197    2.0023865097
C        0.8797243891   -0.5676501695    0.6062416723
H        0.0743151192   -0.1095803583    0.0384478974
H        0.0956979581    0.0808677214    2.4904775534
C        1.9609905227   -0.9456727612    4.2222483695
O        2.9519553600   -1.2277853219    4.8353878664
O        0.8187513595   -0.5924102168    4.8733903761
H        0.0425735843   -1.0278828458    4.5047395272
H        3.7893205145   -2.1638251504    2.6246625818
H        3.7538638512   -2.3318122420    0.1531035592
15   

H        1.9225824457   -1.3320184139   -1.1567541442
C        1.9249406654   -1.2589452248   -0.0725085980
C        2.9612627046   -1.8351693380    0.6677658247
C        2.9685563094   -1.7365644198    2.0647266995
C        1.9348660822   -1.0640505789    2.7429804192
C        0.9008632767   -0.4808170005    1.9810175437
C        0.8962142965   -0.5802842694    0.5852458177
H        0.0958837720   -0.1213309570    0.0110794566
H        0.1002072378    0.0740126568    2.4632556990
C        1.9493342915   -0.9460609383    4.2102323805
O        2.9158055587   -1.2749738308    4.8379288803
O        0.8161862423   -0.5120029357    4.8460307092
H        0.0570692655   -1.0667189309    4.6424410287
H        3.7847166389   -2.1821514397    2.6297095742
H        3.7664440443   -2.3569456110    0.1583193968
15   

H        1.9623590404   -1.3202246654   -1.1735337338
C        1.9534610403   -1.2517158700   -0.0890633705
C        2.9811054281   -1.8322583048    0.6599906564
C        2.9731974047   -1.7400857084    2.0575023903
C        1.9333810456   -1.0684794105    2.7273796112
C        0.9078095453   -0.4822335351    1.9565328662
C        0.9179681556   -0.5755722340    0.5604673735
H        0.1229743188   -0.1147715609   -0.0195223615
H        0.1001780192    0.0668876104    2.4337810530
C        1.9291469593   -0.9584922434    4.1957048625
O        2.8728577852   -1.3252648400    4.8365564315
O        0.8133844471   -0.4410311361    4.8144917730
H        0.0849205742   -1.0676986832    4.8165559905
H        3.7823954180   -2.1896152976    2.6291745460
H        3.7910474688   -2.3527620868    0.1569251022
15   

H        2.0135783448   -1.2842094733   -1.1913346939
C        1.9897555035   -1.2268374986   -0.1064815073
C        3.0069958397   -1.8148003055    0.6509811683
C        2.9788254112   -1.7381258957    2.0492587957
C        1.9295943854   -1.0734405675    2.7115496212
C        0.9143351500   -0.4806530021    1.9320852510
C        0.9443226116   -0.5589252791    0.5354444207
H        0.1558156072   -0.0942171650   -0.0501720267
H        0.0967632637    0.0578889463    2.4044913405
C        1.8997871122   -0.9847514010    4.1816005266
O        2.8238530391   -1.3846174627    4.8327035659
O        0.8135777641   -0.3840208727    4.7813433930
H        0.1343895329   -1.0226726858    5.0130015120
H        3.7793509853   -2.1947315738    2.6273221502
H        3.8240424318   -2.3298571550    0.1539318670
15   

H        2.0656467767   -1.2478161431   -1.2061178903
C        2.0254511882   -1.2028346972   -0.1211972795
C        3.0322739842   -1.7973493991    0.6450308151
C        2.9820829773   -1.7377644807    2.0436073325
C        1.9215830076   -1.0825430137    2.6976598228
C        0.9166566707   -0.4839709121    1.9090679863
C        0.9682890775   -0.5455916596    0.5122917466
H        0.1863765179   -0.0775475869   -0.0794102370
H        0.0879576365    0.0426254345    2.3755855819
C        1.8644648008   -1.0160943889    4.1688027370
O        2.7728100942   -1.4446641856    4.8270544181
O        0.8118864082   -0.3497796604    4.7476219735
H        0.2118289264   -0.9483311713    5.2015783603
H        3.7740357677   -2.2007825190    2.6281720736
H        3.8578336674   -2.3050508024    0.1546202116
15   

H        2.1064429518   -1.2277835334   -1.2160938523
C        2.0513950823   -1.1922743839   -0.1314993676
C        3.0492074175   -1.7906795831    0.6434540922
C        2.9792482219   -1.7440914605    2.0417481641
C        1.9083706495   -1.0967996594    2.6869972790
C        0.9123010513   -0.4951398779    1.8893397492
C        0.9832784866   -0.5443383762    0.4929814769
H        0.2071124002   -0.0747695097   -0.1049985414
H        0.0737531819    0.0216049950    2.3493406135
C        1.8283881370   -1.0446122746    4.1582436765
O        2.7179718929   -1.5063816611    4.8231421996
O        0.8069430448   -0.3321011349    4.7179690519
H        0.3143682362   -0.8555188143    5.3592646619
H        3.7640091532   -2.2109504967    2.6327777591
H        3.8828270835   -2.2918209138    0.1600564829
15   

H        2.1402165538   -1.2149189595   -1.2221844874
C        2.0728488093   -1.1849121529   -0.1381351576
C        3.0675981157   -1.7773535080    0.6453725949
C        2.9815058980   -1.7380212889    2.0430607362
C        1.8972875739   -1.1039810567    2.6790793638
C        0.9039578125   -0.5092359828    1.8727610600
C        0.9912432861   -0.5507653365    0.4771381582
H        0.2166858179   -0.0866344982   -0.1271197414
H        0.0540724775   -0.0051809988    2.3261740799
C        1.7990648920   -1.0595077510    4.1496555281
O        2.6824298442   -1.5240885205    4.8235997111
O        0.7732368745   -0.3583201056    4.6950982431
H        0.4261107457   -0.8002211738    5.4800723659
H        3.7636247466   -2.2006912328    2.6407433867
H        3.9111012224   -2.2685763183    0.1690468968
15   

H        2.1602145531   -1.2026497292   -1.2262249079
C        2.0836569888   -1.1781763368   -0.1426555262
C        3.0758578808   -1.7675314782    0.6464472392
C        2.9776948216   -1.7355528812    2.0435566592
C        1.8839171516   -1.1118385663    2.6732783708
C        0.8928551103   -0.5209160106    1.8614179939
C        0.9922307346   -0.5549495695    0.4664183763
H        0.2190213392   -0.0940484339   -0.1420069498
H        0.0348177551   -0.0268462188    2.3105964237
C        1.7732870249   -1.0739648113    4.1431193128
O        2.6438235577   -1.5544947917    4.8245015410
O        0.7398915337   -0.3917709077    4.6809002893
H        0.5372040601   -0.7272520831    5.5655056809
H        3.7575444993   -2.1962096763    2.6456786900
H        3.9265158603   -2.2509412321    0.1749008873
15   

H        2.1791629043   -1.1887964281   -1.2286759072
C        2.0953857330   -1.1690424531   -0.1455496092
C        3.0881202977   -1.7517010843    0.6479196716
C        2.9804280689   -1.7260408869    2.0444825112
C        1.8763465853   -1.1156711278    2.6690369279
C        0.8844930114   -0.5320618698    1.8529606825
C        0.9936017697   -0.5593262188    0.4585647987
H        0.2194865518   -0.1043280673   -0.1531377045
H        0.0178628126   -0.0499573158    2.2987514903
C        1.7556122556   -1.0841983111    4.1380086188
O        2.6168413565   -1.5725990153    4.8267423208
O        0.6983528723   -0.4453050078    4.6712337923
H        0.6316876847   -0.6531752277    5.6154516743
H        3.7601812184   -2.1820484251    2.6502237685
H        3.9462743618   -2.2254189860    0.1801507386
15   

H        2.1947092711   -1.1718836535   -1.2287385277
C        2.1059431530   -1.1574055289   -0.1459280127
C        3.1015682346   -1.7322140601    0.6496834733
C        2.9872629991   -1.7136296592    2.0458506490
C        1.8733528539   -1.1187092369    2.6677265006
C        0.8783352197   -0.5435165850    1.8495569690
C        0.9943545406   -0.5631266716    0.4556079092
H        0.2175711350   -0.1149024477   -0.1577146635
H        0.0034070117   -0.0748170086    2.2934743129
C        1.7453914501   -1.0948628721    4.1361247707
O        2.6008503096   -1.5892390423    4.8282279659
O        0.6573532767   -0.5109993448    4.6661296362
H        0.6999540803   -0.5653297355    5.6333404788
H        3.7687562842   -2.1642674712    2.6533532021
H        3.9667851871   -2.1948490970    0.1838446614
15   

H        2.2007636568   -1.1496480556   -1.2274291606
C        2.1101985729   -1.1421950129   -0.1446947386
C        3.1110380199   -1.7101653388    0.6492426424
C        2.9942792448   -1.7009353970    2.0452820307
C        1.8724215346   -1.1227801668    2.6688101134
C        0.8718576570   -0.5549563045    1.8522307718
C        0.9906680907   -0.5646395319    0.4583949523
H        0.2094913616   -0.1224387868   -0.1537153803
H       -0.0100703700   -0.1005747507    2.2971381014
C        1.7418442730   -1.1091455964    4.1372136933
O        2.5956126918   -1.6110677238    4.8255151724
O        0.6233657383   -0.5811850372    4.6669061589
H        0.7381070498   -0.4603452269    5.6215966941
H        3.7794771995   -2.1470755268    2.6513377047
H        3.9819465993   -2.1607691514    0.1822102272
15   

H        2.2023027624   -1.1263741608   -1.2237942996
C        2.1115896245   -1.1275539391   -0.1410420888
C        3.1179340558   -1.6912765238    0.6488775145
C        3.0009058265   -1.6934859696    2.0448978809
C        1.8731154979   -1.1314116436    2.6726558184
C        0.8666666142   -0.5683748252    1.8599068011
C        0.9860214179   -0.5662015300    0.4660605166
H        0.2002413989   -0.1280822861   -0.1430907738
H       -0.0208901697   -0.1278020657    2.3073807585
C        1.7424952170   -1.1297652323    4.1413428617
O        2.5948125588   -1.6433128635    4.8216728059
O        0.5999815756   -0.6453155250    4.6728259354
H        0.7516274357   -0.3386777537    5.5778857632
H        3.7901916966   -2.1370413903    2.6475649026
H        3.9931447712   -2.1301901490    0.1787488178
15   

H        2.2019020950   -1.1031429393   -1.2186238340
C        2.1113980395   -1.1150608885   -0.1359102288
C        3.1218510622   -1.6790402944    0.6485063150
C        3.0050262939   -1.6953978618    2.0444201650
C        1.8734443947   -1.1471896787    2.6777021724
C        0.8624158938   -0.5845219823    1.8703599484
C        0.9816775054   -0.5681080653    0.4765830915
H        0.1923436620   -0.1307579300   -0.1285295174
H       -0.0293416503   -0.1563479042    2.3213537662
C        1.7438414781   -1.1595802722    4.1464666813
O        2.5896860048   -1.6921495693    4.8182448066
O        0.5891282398   -0.6919400859    4.6844710685
H        0.7563898927   -0.2017431636    5.4991409894
H        3.7973357497   -2.1395974018    2.6426930144
H        3.9999732697   -2.1075263905    0.1741809380
15   

H        2.1945889460   -1.0680399741   -1.2110054376
C        2.1059944903   -1.0933247891   -0.1283475677
C        3.1233626543   -1.6562882287    0.6477357336
C        3.0089990485   -1.6901709319    2.0434663535
C        1.8730779759   -1.1607547722    2.6849596902
C        0.8544999160   -0.5998876964    1.8860018970
C        0.9715605896   -0.5655730149    0.4923039267
H        0.1765958299   -0.1300734994   -0.1067620302
H       -0.0421177570   -0.1883805583    2.3426497770
C        1.7466703787   -1.1927006338    4.1535260743
O        2.5937320746   -1.7315294789    4.8159687824
O        0.5843146081   -0.7355471359    4.7051185344
H        0.7467312763   -0.0720023406    5.3842247046
H        3.8064456958   -2.1340389696    2.6352290305
H        4.0047908834   -2.0707879842    0.1670987939
15   

H        2.1894951214   -1.0233843431   -1.1989664220
C        2.1008099568   -1.0662769124   -0.1168449307
C        3.1199382560   -1.6384877863    0.6500955399
C        3.0051291697   -1.6960053888    2.0449419499
C        1.8677990386   -1.1800208826    2.6945571895
C        0.8468549023   -0.6104805211    1.9050387237
C        0.9641054484   -0.5531862833    0.5120503905
H        0.1671898942   -0.1123340685   -0.0805191686
H       -0.0530152563   -0.2128659341    2.3674463635
C        1.7415377547   -1.2388741136    4.1617086621
O        2.5707483659   -1.8108536126    4.8153960276
O        0.6010843426   -0.7318112742    4.7354542568
H        0.7746778590    0.0717176422    5.2340679807
H        3.8033451200   -2.1476704293    2.6298700039
H        4.0028042440   -2.0423346381    0.1629944903
15   

H        2.1920718036   -0.9607162813   -1.1810338690
C        2.1016508704   -1.0240401987   -0.1000252495
C        3.1210330269   -1.6081221203    0.6575605247
C        3.0035354878   -1.6933353411    2.0506814073
C        1.8639989525   -1.1923101071    2.7077595352
C        0.8421879856   -0.6113954196    1.9279176730
C        0.9619612869   -0.5269487743    0.5364599636
H        0.1641848082   -0.0790391690   -0.0496912103
H       -0.0619995557   -0.2298267810    2.3953244162
C        1.7335388424   -1.2860344471    4.1719997394
O        2.5470548902   -1.8862473052    4.8167177345
O        0.6300298214   -0.7166576198    4.7707461311
H        0.8013009899    0.1859379278    5.0515046476
H        3.8010782533   -2.1553471767    2.6285722198
H        4.0057512292   -2.0005381212    0.1644174502
15   

H        2.1947130988   -0.8991317226   -1.1601231874
C        2.1028533249   -0.9809751053   -0.0804417367
C        3.1217468755   -1.5773766046    0.6681072500
C        3.0019829280   -1.6879212777    2.0591621774
C        1.8614105880   -1.1989159240    2.7232232532
C        0.8393884502   -0.6062376224    1.9525812175
C        0.9613003015   -0.4970451359    0.5629666497
H        0.1632095016   -0.0418572049   -0.0172019267
H       -0.0685720273   -0.2389432084    2.4240375522
C        1.7266404034   -1.3255009760    4.1840133022
O        2.5229630600   -1.9593881536    4.8163580767
O        0.6772146513   -0.6878127990    4.8066287795
H        0.8182109921    0.2612737249    4.8588856084
H        3.7983486653   -2.1607069416    2.6300935773
H        4.0074437352   -1.9605893614    0.1694146640
15   

H        2.1830110689   -0.8600669053   -1.1417205868
C        2.0933065591   -0.9538388441   -0.0627888980
C        3.1134249462   -1.5594264714    0.6765525133
C        2.9963524289   -1.6862098761    2.0663351956
C        1.8580493211   -1.2032880641    2.7385488705
C        0.8338262858   -0.6023331152    1.9771475337
C        0.9530081679   -0.4773821082    0.5885234192
H        0.1534685628   -0.0169975415    0.0144009838
H       -0.0753774280   -0.2442251689    2.4531166811
C        1.7265273604   -1.3498802070    4.1973750642
O        2.5033872645   -2.0224477502    4.8141403649
O        0.7378355067   -0.6540096401    4.8415042669
H        0.8071218129    0.2927487769    4.6857321843
H        3.7932880312   -2.1666369412    2.6302098182
H        3.9978340596   -1.9376170942    0.1716807436
15   

H        2.1509381652   -0.8494502441   -1.1307655199
C        2.0675452475   -0.9481169346   -0.0517306884
C        3.0900780692   -1.5612323837    0.6778201969
C        2.9814289296   -1.6943416121    2.0675336544
C        1.8501613152   -1.2091810313    2.7498293822
C        0.8222669998   -0.6019068640    1.9982587563
C        0.9329658643   -0.4711638567    0.6093157563
H        0.1313004744   -0.0063098647    0.0417374043
H       -0.0843083998   -0.2453583711    2.4800862782
C        1.7320711998   -1.3605416134    4.2090352845
O        2.4827789562   -2.0780719343    4.8083070248
O        0.8064597221   -0.6146808271    4.8726823357
H        0.7703691066    0.2911116053    4.5467541279
H        3.7803545293   -2.1800744579    2.6241480842
H        3.9699928234   -1.9401253541    0.1655829444
15   

H        2.1027271319   -0.8653919458   -1.1266681635
C        2.0293485310   -0.9624624972   -0.0467354096
C        3.0544374334   -1.5830113409    0.6726101599
C        2.9592341091   -1.7133571742    2.0633836440
C        1.8400988131   -1.2169747234    2.7574148079
C        0.8082656747   -0.6034330979    2.0161275118
C        0.9053864464   -0.4761027986    0.6256660909
H        0.1017181220   -0.0061631468    0.0651147292
H       -0.0914796093   -0.2397225986    2.5048524642
C        1.7446223341   -1.3600076061    4.2189671693
O        2.4629092781   -2.1234719283    4.8019672369
O        0.8796570551   -0.5710231832    4.8998162704
H        0.7137027303    0.2641688277    4.4462888539
H        3.7606815622   -2.2034563510    2.6126194474
H        3.9263406562   -1.9689969451    0.1519580828
15   

H        2.0480123478   -0.9007164936   -1.1278406564
C        1.9857053807   -0.9915615687   -0.0466557607
C        3.0099526826   -1.6236543673    0.6634438218
C        2.9296608997   -1.7447854775    2.0557994896
C        1.8277309394   -1.2265521323    2.7612809695
C        0.7955547243   -0.6020464649    2.0293068779
C        0.8773799214   -0.4849681874    0.6367679835
H        0.0745374666   -0.0059570563    0.0827412198
H       -0.0928004145   -0.2204099908    2.5244168244
C        1.7595309640   -1.3521489483    4.2260582469
O        2.4386431647   -2.1607922615    4.7957947108
O        0.9540667574   -0.5217591351    4.9195930511
H        0.6435555903    0.2202057428    4.3848023805
H        3.7314061608   -2.2418412433    2.5983990547
H        3.8703065227   -2.0244679092    0.1347868353
15   

H        1.9918048384   -0.9392893898   -1.1330642808
C        1.9428150792   -1.0198650336   -0.0503758755
C        2.9616923925   -1.6703988513    0.6501091015
C        2.8991584205   -1.7770378059    2.0443390642
C        1.8214333330   -1.2257551885    2.7626955960
C        0.7944372889   -0.5812670667    2.0399376508
C        0.8580652897   -0.4798229197    0.6450004411
H        0.0601788148    0.0153310435    0.0980742700
H       -0.0754921269   -0.1674557325    2.5406457814
C        1.7842871622   -1.3319355372    4.2312349782
O        2.4463606446   -2.1623385220    4.7902618717
O        1.0071228433   -0.4880721497    4.9361936299
H        0.5258446077    0.1308077647    4.3713537733
H        3.6984652401   -2.2865930867    2.5789412457
H        3.8049808325   -2.0954933944    0.1129580400
