15   

H        2.1271731105   -1.0610750855   -1.2209014150
C        1.9701896479   -1.0475287153   -0.1458266726
C        3.0517428883   -1.2090816444    0.7250384970
C        2.8496089340   -1.1921315220    2.1114825651
C        1.5750277870   -1.0076546219    2.6408534493
C        0.4892325762   -0.8565612861    1.7591072186
C        0.6850930065   -0.8725802613    0.3736033550
H       -0.1620505433   -0.7512103537   -0.2955391745
H       -0.5139330086   -0.7261666709    2.1592565643
C        1.3363210858   -1.0078906867    4.1002309048
O        0.2532050539   -1.1124340541    4.6203452440
O        2.4619737722   -0.8943849057    4.8444933604
H        2.1477990092   -0.9106667275    5.7603514343
H        3.7101016939   -1.3264424584    2.7620969469
H        4.0522054283   -1.3500596536    0.3259772583
15   

H        2.1246498398   -1.0335572187   -1.2187924094
C        1.9683910661   -1.0309814452   -0.1435314164
C        3.0460756269   -1.2339519610    0.7240823046
C        2.8439259868   -1.2315912278    2.1105048385
C        1.5758537613   -1.0141836917    2.6412106212
C        0.4920515794   -0.8312661700    1.7648206783
C        0.6874151175   -0.8324161628    0.3789798815
H       -0.1568485357   -0.6835750441   -0.2882393168
H       -0.5072636273   -0.6894662915    2.1703974577
C        1.3412581693   -1.0533494998    4.1018494937
O        0.3073782575   -1.3862224383    4.6242210238
O        2.4261771456   -0.7149066701    4.8376133272
H        2.1290281139   -0.7915593908    5.7560141564
H        3.6941598596   -1.4007067727    2.7666499838
H        4.0421699089   -1.3970805671    0.3225635163
15   

H        2.1177453269   -1.0080957548   -1.2164918033
C        1.9639258103   -1.0165758282   -0.1409094941
C        3.0381743948   -1.2615941200    0.7207679094
C        2.8382729610   -1.2736887314    2.1073345668
C        1.5785464729   -1.0245832249    2.6418253198
C        0.4961200028   -0.8062762778    1.7737745224
C        0.6889194440   -0.7925998905    0.3874306000
H       -0.1526104495   -0.6144353201   -0.2760277171
H       -0.4980998997   -0.6504517836    2.1861056498
C        1.3535898644   -1.0994205047    4.1052576715
O        0.4186272776   -1.6454773707    4.6319184925
O        2.3541378314   -0.5472921425    4.8298452073
H        2.0880929883   -0.6790198287    5.7514243850
H        3.6787885454   -1.4750771903    2.7669381017
H        4.0284920464   -1.4467004933    0.3145362942
15   

H        2.1067611290   -0.9837237401   -1.2155332688
C        1.9581518093   -1.0062204037   -0.1394207926
C        3.0296496763   -1.2973249119    0.7117955202
C        2.8360243652   -1.3272288295    2.0988935466
C        1.5870257975   -1.0499551465    2.6422064415
C        0.5058422389   -0.7862421066    1.7866923049
C        0.6923849866   -0.7543511616    0.3996201466
H       -0.1466316800   -0.5407504366   -0.2565027600
H       -0.4808919044   -0.6098403867    2.2079199965
C        1.3771931461   -1.1498765936    4.1105319093
O        0.5893773061   -1.8830917488    4.6473898020
O        2.2370612838   -0.3838127760    4.8190320914
H        2.0115260757   -0.5556722347    5.7446686901
H        3.6699132462   -1.5622556192    2.7556344361
H        4.0120836185   -1.5040851079    0.2969636694
15   

H        2.0896333985   -0.9507912644   -1.2157596654
C        1.9514579211   -0.9933129643   -0.1388611953
C        3.0217382595   -1.3390448852    0.6934664741
C        2.8415350846   -1.3943120820    2.0815637010
C        1.6068433651   -1.0943036303    2.6431602318
C        0.5275841719   -0.7671074671    1.8080131313
C        0.7008689984   -0.7096715527    0.4199559411
H       -0.1361614582   -0.4497468008   -0.2218167515
H       -0.4463805384   -0.5603688995    2.2442922152
C        1.4183744819   -1.2028470139    4.1181755102
O        0.8236908824   -2.0837035743    4.6786892923
O        2.0538811759   -0.2230823398    4.7977140744
H        1.8715658664   -0.4127565337    5.7292519150
H        3.6732239418   -1.6688431372    2.7254206034
H        3.9926316253   -1.5674540598    0.2631019256
15   

H        2.0780868652   -0.9098248058   -1.2148586064
C        1.9525835162   -0.9734706759   -0.1374505068
C        3.0178275740   -1.3854871776    0.6707002864
C        2.8537545594   -1.4680159714    2.0594546257
C        1.6377601395   -1.1415041076    2.6452017903
C        0.5679591324   -0.7298469461    1.8353318017
C        0.7247766774   -0.6452633054    0.4467129219
H       -0.1065118894   -0.3263710835   -0.1756232540
H       -0.3858865612   -0.4777537762    2.2914383345
C        1.4730089987   -1.2405544486    4.1258747246
O        1.1012532053   -2.2147593928    4.7218263265
O        1.7928668917   -0.0917312351    4.7602210073
H        1.6470279460   -0.2803551747    5.6983165805
H        3.6824125428   -1.7907054417    2.6845548247
H        3.9726394236   -1.6427916875    0.2210765889
15   

H        2.0619298332   -0.8790483325   -1.2142882088
C        1.9514688122   -0.9557129422   -0.1360816948
C        3.0114371451   -1.4250705731    0.6471003819
C        2.8664447572   -1.5247666222    2.0368281587
C        1.6710777304   -1.1693990617    2.6487218174
C        0.6126024893   -0.6836214418    1.8642057966
C        0.7500734513   -0.5820549027    0.4747117931
H       -0.0749029271   -0.2118174505   -0.1272480740
H       -0.3175963817   -0.3865703421    2.3416230576
C        1.5383119488   -1.2544280516    4.1318157707
O        1.4097146879   -2.2666544531    4.7662480239
O        1.5123004393   -0.0369474517    4.7172104668
H        1.4076170521   -0.2213791765    5.6616659284
H        3.6920747172   -1.8895834974    2.6426973329
H        3.9478262823   -1.7126182408    0.1774791855
15   

H        2.0487278579   -0.8846201726   -1.2172486744
C        1.9501730679   -0.9588588839   -0.1377202609
C        3.0022848574   -1.4686807680    0.6303329471
C        2.8726607065   -1.5653425127    2.0217252364
C        1.6979208442   -1.1710126480    2.6518016138
C        0.6503151344   -0.6382452901    1.8810810162
C        0.7728983223   -0.5398077662    0.4900048778
H       -0.0447279597   -0.1354379895   -0.0998975301
H       -0.2602932888   -0.3018338517    2.3702935062
C        1.5964290045   -1.2427548451    4.1339544843
O        1.7085418184   -2.2410864406    4.7950790157
O        1.2701415653   -0.0543671408    4.6902013094
H        1.2143519283   -0.2363859613    5.6393810905
H        3.6927048971   -1.9612311767    2.6159925711
H        3.9210355307   -1.7898438555    0.1478195322
15   

H        2.0333477446   -0.9131396735   -1.2227798906
C        1.9445720358   -0.9746809321   -0.1416052598
C        2.9880039976   -1.5117230550    0.6193108805
C        2.8713850995   -1.5919213787    2.0127836059
C        1.7174240984   -1.1528007744    2.6543384806
C        0.6776822431   -0.5944721688    1.8881689018
C        0.7885126516   -0.5127328648    0.4950172582
H       -0.0224202114   -0.0880497736   -0.0898368245
H       -0.2191301619   -0.2253054004    2.3794639698
C        1.6441545613   -1.2154775829    4.1344176728
O        1.9849076384   -2.1537229375    4.8074671940
O        1.0718734920   -0.1194492423    4.6837191028
H        1.0709277151   -0.2970566608    5.6354847965
H        3.6854929072   -2.0098010880    2.6006344854
H        3.8902876982   -1.8671371564    0.1297714514
15   

H        2.0177212264   -0.9530388507   -1.2296520908
C        1.9381289592   -0.9963334829   -0.1468787620
C        2.9725887966   -1.5530640740    0.6115626570
C        2.8683765349   -1.6096800419    2.0070876944
C        1.7361895746   -1.1234446828    2.6558132027
C        0.7023968033   -0.5507023299    1.8890973007
C        0.8022457626   -0.4928426975    0.4939287307
H       -0.0027086144   -0.0551400924   -0.0896010557
H       -0.1835735277   -0.1515397129    2.3766154384
C        1.6838699788   -1.1792633719    4.1339537702
O        2.2303402313   -2.0124054923    4.8120087637
O        0.9059711952   -0.2185092853    4.6851731391
H        0.9569383614   -0.3829552988    5.6380312929
H        3.6777040509   -2.0441233578    2.5899184209
H        3.8587784256   -1.9425879623    0.1185776933
15   

H        1.9967623590   -0.9985489309   -1.2355066789
C        1.9271955553   -1.0218995063   -0.1514282959
C        2.9532646349   -1.5945606560    0.6058808660
C        2.8626774277   -1.6251127168    2.0031200482
C        1.7537231703   -1.0925346466    2.6572694761
C        0.7245634325   -0.5100198621    1.8889142371
C        0.8119451597   -0.4783035058    0.4920856260
H        0.0122838360   -0.0302807763   -0.0909041523
H       -0.1498629951   -0.0810760586    2.3718313398
C        1.7167859944   -1.1395533839    4.1348693982
O        2.4373567390   -1.8226228019    4.8195694351
O        0.7649301371   -0.3497083945    4.6851517976
H        0.8588253372   -0.4875798639    5.6390245023
H        3.6683852945   -2.0734524634    2.5805920199
H        3.8229865096   -2.0170558363    0.1107123109
15   

H        1.9716837263   -1.0475020012   -1.2388639956
C        1.9132133019   -1.0499015906   -0.1538816180
C        2.9316319466   -1.6363232187    0.6029275422
C        2.8559176633   -1.6392787990    2.0013721641
C        1.7711758701   -1.0614683951    2.6583320889
C        0.7462428123   -0.4710202095    1.8892632685
C        0.8193502027   -0.4666600062    0.4912754750
H        0.0247346261   -0.0093775965   -0.0914311635
H       -0.1134980261   -0.0118416985    2.3706635471
C        1.7452535820   -1.0947464362    4.1362315885
O        2.6010901807   -1.5895811598    4.8276185173
O        0.6531705542   -0.5093032219    4.6816360765
H        0.7779856714   -0.6089903694    5.6367401847
H        3.6566943331   -2.0997823621    2.5761517991
H        3.7841533548   -2.0910886939    0.1064277920
15   

H        1.9428083488   -1.0963256567   -1.2386207461
C        1.8962408962   -1.0779957289   -0.1532147281
C        2.9074102391   -1.6776606962    0.6032335751
C        2.8472829559   -1.6530115717    2.0022310415
C        1.7877701653   -1.0308317694    2.6592356365
C        0.7669195905   -0.4332572740    1.8913605429
C        0.8243410897   -0.4558360479    0.4928024735
H        0.0346414595    0.0102412450   -0.0896115841
H       -0.0752428541    0.0541585155    2.3761404402
C        1.7680236527   -1.0466950957    4.1378279895
O        2.7114770644   -1.3258307833    4.8353945750
O        0.5776519180   -0.6891147607    4.6743416046
H        0.7186145508   -0.7416846359    5.6309313457
H        3.6406252920   -2.1237622022    2.5789886580
H        3.7419411277   -2.1639322908    0.1060330644
15   

H        1.9153639170   -1.1385417523   -1.2355604642
C        1.8803413114   -1.1010625440   -0.1502143630
C        2.8824903931   -1.7163504446    0.6063617952
C        2.8371716160   -1.6662333475    2.0052864486
C        1.8045831785   -0.9994947031    2.6597614547
C        0.7894775492   -0.3928853059    1.8941243416
C        0.8314072785   -0.4399929630    0.4956124029
H        0.0476221133    0.0360750210   -0.0866952656
H       -0.0337934091    0.1199080300    2.3852618799
C        1.7840533419   -0.9976994261    4.1397371598
O        2.7616547916   -1.0494982360    4.8426783265
O        0.5419984638   -0.8781411287    4.6641637321
H        0.6825487635   -0.8802350882    5.6221929766
H        3.6205537339   -2.1476979512    2.5866193713
H        3.6978776068   -2.2341902774    0.1092896795
15   

H        1.8897880650   -1.1733114936   -1.2310666651
C        1.8653331782   -1.1182842808   -0.1461791130
C        2.8555593327   -1.7517523806    0.6116652655
C        2.8236111673   -1.6785019759    2.0100256110
C        1.8194261163   -0.9679417384    2.6602269800
C        0.8133161586   -0.3486611548    1.8959991214
C        0.8408643651   -0.4178538059    0.4980400025
H        0.0649308875    0.0702595745   -0.0847933364
H        0.0095153136    0.1890711720    2.3926635794
C        1.7934632355   -0.9448832003    4.1430370010
O        2.7502839752   -0.7666230362    4.8516483970
O        0.5468176580   -1.0710132955    4.6534111962
H        0.6708242898   -1.0221685914    5.6123897022
H        3.5954068232   -2.1730649514    2.5954336333
H        3.6506066114   -2.3015118908    0.1159352791
15   

H        1.8737383720   -1.2017563311   -1.2273500497
C        1.8548433326   -1.1316267474   -0.1432232818
C        2.8264982289   -1.7872615042    0.6201855988
C        2.8015836751   -1.6941567534    2.0176222523
C        1.8244835839   -0.9416422295    2.6591073548
C        0.8359082277   -0.3018935354    1.8917942275
C        0.8555563105   -0.3900064704    0.4947761702
H        0.0933590715    0.1148179886   -0.0919265948
H        0.0524913962    0.2650287027    2.3883488226
C        1.7910699962   -0.8900048866    4.1451899715
O        2.6770102737   -0.4859195492    4.8509845332
O        0.5974151488   -1.2735567206    4.6513672777
H        0.6959571319   -1.1758779204    5.6094559592
H        3.5577840871   -2.2057501922    2.6082042228
H        3.6011891170   -2.3695057991    0.1293563710
15   

H        1.8759932496   -1.2160240700   -1.2250214428
C        1.8528317528   -1.1344747647   -0.1417755615
C        2.7940652136   -1.8190167949    0.6345525791
C        2.7635605273   -1.7112254378    2.0308891714
C        1.8088804705   -0.9196584023    2.6566764989
C        0.8545992322   -0.2450489406    1.8781750172
C        0.8795032660   -0.3474886861    0.4821830755
H        0.1425623203    0.1822963076   -0.1146949525
H        0.0943199802    0.3599493754    2.3654008720
C        1.7699864762   -0.8345619914    4.1451889787
O        2.5399579867   -0.2183024690    4.8314923067
O        0.7111686689   -1.4888465344    4.6709638025
H        0.7857896620   -1.3483224007    5.6257697870
H        3.4961626513   -2.2446375968    2.6313883283
H        3.5494037646   -2.4346843897    0.1544802590
15   

H        1.9106465379   -1.2132796029   -1.2245241015
C        1.8684754645   -1.1259016956   -0.1423056372
C        2.7633789126   -1.8466281888    0.6560121852
C        2.7082077333   -1.7317931572    2.0510529156
C        1.7676188039   -0.9061614372    2.6526979286
C        0.8706339824   -0.1813077212    1.8528038325
C        0.9201931685   -0.2911093169    0.4579934419
H        0.2238368938    0.2723221383   -0.1565536943
H        0.1363160970    0.4686379379    2.3215827032
C        1.7235761227   -0.7864501195    4.1403386036
O        2.3327034541    0.0170083868    4.7929140153
O        0.9060196085   -1.6989718046    4.7090253158
H        0.9623962872   -1.5211177253    5.6587941779
H        3.4062956582   -2.2911159643    2.6686159130
H        3.5024428197   -2.4949347447    0.1939343782
15   

H        1.9514617451   -1.2012021943   -1.2237355058
C        1.8846861394   -1.1143252454   -0.1427154863
C        2.7255931742   -1.8757526013    0.6763716192
C        2.6387882206   -1.7617532588    2.0698602660
C        1.7112776663   -0.9050374246    2.6491887030
C        0.8813246785   -0.1260211901    1.8284328859
C        0.9626038789   -0.2353280240    0.4350646706
H        0.3135545098    0.3652766961   -0.1958568288
H        0.1751457832    0.5660283157    2.2801699488
C        1.6627576143   -0.7599503163    4.1322825295
O        2.0749834754    0.1840236460    4.7509227253
O        1.1553125479   -1.8515660172    4.7458417490
H        1.1932915031   -1.6419988470    5.6900965452
H        3.2972782966   -2.3501739534    2.7037193004
H        3.4482926807   -2.5539658285    0.2316800832
15   

H        1.9884326338   -1.1981722280   -1.2223636214
C        1.8991832580   -1.1130902860   -0.1428245985
C        2.6940529732   -1.9055306442    0.6924233750
C        2.5786730363   -1.7936296870    2.0840381168
C        1.6632396550   -0.9118325715    2.6466059170
C        0.8864726904   -0.0964223943    1.8086643025
C        0.9963932445   -0.2033946534    0.4171691345
H        0.3858297831    0.4242340147   -0.2257663368
H        0.1995306623    0.6232955132    2.2471975216
C        1.5962129775   -0.7529458054    4.1231748595
O        1.7812220763    0.2768979128    4.7161909590
O        1.3883474988   -1.9219449499    4.7700384120
H        1.3883660171   -1.6850317155    5.7086954500
H        3.2045958890   -2.4055552058    2.7287741858
H        3.4041912591   -2.6057748285    0.2618732755
15   

H        2.0149210270   -1.1944451715   -1.2224271491
C        1.9110574845   -1.1123897895   -0.1439611387
C        2.6681552835   -1.9321837948    0.6994086979
C        2.5343863698   -1.8244260447    2.0897928548
C        1.6372779206   -0.9181442789    2.6452156359
C        0.8985684056   -0.0769155177    1.7970060380
C        1.0272048464   -0.1795221602    0.4069583138
H        0.4454530856    0.4694410466   -0.2415042983
H        0.2252663680    0.6605116002    2.2278622266
C        1.5411089085   -0.7595789055    4.1160822823
O        1.4896697931    0.2955813614    4.6937461185
O        1.5887184561   -1.9344695737    4.7856600126
H        1.5333072790   -1.6844644061    5.7193983274
H        3.1353324997   -2.4599886659    2.7355671866
H        3.3639637908   -2.6510318879    0.2761765113
15   

H        2.0401900186   -1.1866240308   -1.2236677469
C        1.9256877069   -1.1083729450   -0.1459963552
C        2.6489146667   -1.9537308533    0.7011561754
C        2.5017305012   -1.8517560583    2.0907516065
C        1.6270662862   -0.9213713044    2.6441669162
C        0.9177630060   -0.0597453421    1.7893951149
C        1.0602872296   -0.1566561640    0.4005041607
H        0.5019661430    0.5104017901   -0.2502089125
H        0.2537796294    0.6897797191    2.2143290733
C        1.4956755607   -0.7734985858    4.1107632085
O        1.2113619973    0.2520745689    4.6764041840
O        1.7686373975   -1.9065738145    4.7996561897
H        1.6501594168   -1.6594197198    5.7283709426
H        3.0806738213   -2.5125344402    2.7312363608
H        3.3291000357   -2.6893842455    0.2814014297
15   

H        2.0648547253   -1.1740145411   -1.2244986454
C        1.9406968032   -1.1009783228   -0.1475290395
C        2.6308887287   -1.9717996307    0.7007446758
C        2.4713793375   -1.8776009104    2.0896492677
C        1.6211153547   -0.9241296484    2.6435138879
C        0.9377948712   -0.0436269220    1.7850007164
C        1.0931445574   -0.1330636868    0.3971583633
H        0.5565610085    0.5511374724   -0.2540569955
H        0.2815443713    0.7154854169    2.2051758975
C        1.4546566499   -0.7934309211    4.1070616868
O        0.9511186087    0.1524007142    4.6606327138
O        1.9392707913   -1.8416862737    4.8143197886
H        1.7607436077   -1.6121331558    5.7380082141
H        3.0265239007   -2.5652978233    2.7226372305
H        3.2946141399   -2.7230497261    0.2822451655
15   

H        2.0869134294   -1.1573567589   -1.2238971836
C        1.9531978653   -1.0915837165   -0.1476030303
C        2.6109762957   -1.9883130956    0.6991181677
C        2.4389648236   -1.9040534453    2.0872114912
C        1.6135344168   -0.9298471498    2.6431869150
C        0.9544077654   -0.0303193384    1.7846256727
C        1.1225172041   -0.1098426295    0.3977283282
H        0.6071071509    0.5915444397   -0.2523109470
H        0.3061436892    0.7364525536    2.2033545041
C        1.4158270656   -0.8205743991    4.1043664813
O        0.7150869652    0.0001981621    4.6434598662
O        2.0995468484   -1.7382239369    4.8286323089
H        1.8698879016   -1.5386220538    5.7479960417
H        2.9660070430   -2.6178585392    2.7151962417
H        3.2580459070   -2.7535749577    0.2799109638
