15   

H        1.8845470164   -1.1969691209   -1.1372773166
C        1.8989865693   -1.1487264954   -0.0516623278
C        2.9606910820   -1.7129355665    0.6605994983
C        2.9827587440   -1.6485607828    2.0588636889
C        1.9377417050   -1.0271841642    2.7676303195
C        0.8788091352   -0.4511690945    2.0341115964
C        0.8609905380   -0.5146751788    0.6358209809
H        0.0426211834   -0.0638034551    0.0808979064
H        0.0688808963    0.0726004620    2.5337482733
C        1.9680883683   -0.9741836753    4.2380957310
O        2.9986688411   -1.1458666493    4.8281181973
O        0.8176975165   -0.7689074310    4.9117198680
H        0.0392111191   -0.8750488027    4.3499162352
H        3.8161048381   -2.0883464848    2.6032872418
H        3.7727940548   -2.2011941082    0.1291573250
15   

H        1.8838481257   -1.2621011265   -1.1392998032
C        1.8976761284   -1.2011217320   -0.0543333680
C        2.9498219109   -1.7726316054    0.6665771755
C        2.9717652318   -1.6906656410    2.0641124638
C        1.9363477604   -1.0425578181    2.7629725601
C        0.8871173822   -0.4605491660    2.0206777574
C        0.8687378136   -0.5425470801    0.6235497343
H        0.0577723172   -0.0858349830    0.0625747440
H        0.0864375964    0.0827002756    2.5151177650
C        1.9669687079   -0.9570535557    4.2318023284
O        2.9799005709   -1.1865343014    4.8318113293
O        0.8201727735   -0.6788308861    4.8963827097
H        0.0378198781   -0.9607343381    4.4072733019
H        3.7988933862   -2.1342208526    2.6148328583
H        3.7553373594   -2.2789343213    0.1420954329
15   

H        1.8961934889   -1.3111623213   -1.1454655736
C        1.9060533780   -1.2408204042   -0.0610484696
C        2.9502784484   -1.8146184597    0.6697581941
C        2.9674148067   -1.7197583910    2.0667314735
C        1.9353272232   -1.0548495780    2.7547475023
C        0.8937715640   -0.4723385544    2.0023845658
C        0.8797083860   -0.5677100764    0.6062410217
H        0.0742988689   -0.1096450449    0.0384437044
H        0.0956887919    0.0808339781    2.4904702741
C        1.9609905227   -0.9456727612    4.2222483695
O        2.9519553600   -1.2277853219    4.8353878664
O        0.8187513595   -0.5924102168    4.8733903761
H        0.0425735843   -1.0278828458    4.5047395272
H        3.7893095660   -2.1638609104    2.6246741837
H        3.7538458650   -2.3318787814    0.1531171258
15   

H        1.9225488219   -1.3321231459   -1.1567462083
C        1.9249106900   -1.2590351728   -0.0725016683
C        2.9612349286   -1.8352494953    0.6677773979
C        2.9685349219   -1.7366227205    2.0647367899
C        1.9348490122   -1.0640960207    2.7429842789
C        0.9008430217   -0.4808741605    1.9810165614
C        0.8961876040   -0.5803633967    0.5852465420
H        0.0958560937   -0.1214164000    0.0110764652
H        0.1001918982    0.0739678066    2.4632487713
C        1.9493342915   -0.9460609383    4.2102323805
O        2.9158055587   -1.2749738308    4.8379288803
O        0.8161862423   -0.5120029357    4.8460307092
H        0.0570692655   -1.0667189309    4.6424410287
H        3.7846993567   -2.1821982212    2.6297227905
H        3.7664144486   -2.3570328311    0.1583353546
15   

H        1.9623091311   -1.3203485200   -1.1735254084
C        1.9534171340   -1.2518223641   -0.0890560886
C        2.9810654665   -1.8323529929    0.6600017612
C        2.9731672710   -1.7401545967    2.0575119272
C        1.9333570504   -1.0685333805    2.7273836543
C        0.9077803074   -0.4823016758    1.9565329400
C        0.9179290455   -0.5756662915    0.5604692053
H        0.1229330676   -0.1148731994   -0.0195236567
H        0.1001554021    0.0668338934    2.4337757911
C        1.9291469593   -0.9584922434    4.1957048625
O        2.8728577852   -1.3252648400    4.8365564315
O        0.8133844471   -0.4410311361    4.8144917730
H        0.0849205742   -1.0676986832    4.8165559905
H        3.7823712914   -2.1896702340    2.6291865386
H        3.7910046961   -2.3528648110    0.1569400207
15   

H        2.0135159870   -1.2843354102   -1.1913286912
C        1.9897011492   -1.2269460327   -0.1064762476
C        3.0069469246   -1.8148968582    0.6509884775
C        2.9787890593   -1.7381963045    2.0492649643
C        1.9295655472   -1.0734959361    2.7115525006
C        0.9142993797   -0.4807229185    1.9320860180
C        0.9442742451   -0.5590214090    0.5354464453
H        0.1557640206   -0.0943209502   -0.0501717675
H        0.0967352193    0.0578336862    2.4044888058
C        1.8997871122   -0.9847514010    4.1816005266
O        2.8238530391   -1.3846174627    4.8327035659
O        0.8135777641   -0.3840208727    4.7813433930
H        0.1343895329   -1.0226726858    5.0130015120
H        3.7793219630   -2.1947875479    2.6273295721
H        3.8239898468   -2.3299616586    0.1539413904
15   

H        2.0655832944   -1.2479255923   -1.2061152911
C        2.0253961900   -1.2029292122   -0.1211949820
C        3.0322250051   -1.7974333177    0.6450334469
C        2.9820469710   -1.7378257733    2.0436094729
C        1.9215543966   -1.0825915444    2.6976610545
C        0.9166206214   -0.4840323587    1.9090688920
C        0.9682400374   -0.5456757684    0.5122931876
H        0.1863237465   -0.0776384197   -0.0794091964
H        0.0879289832    0.0425765876    2.3755854223
C        1.8644648008   -1.0160943889    4.1688027370
O        2.7728100942   -1.4446641856    4.8270544181
O        0.8118864082   -0.3497796604    4.7476219735
H        0.2118289264   -0.9483311713    5.2015783603
H        3.7740072083   -2.2008309130    2.6281743586
H        3.8577809550   -2.3051412906    0.1546233539
15   

H        2.1063879857   -1.2278680299   -1.2160936057
C        2.0513476097   -1.1923475084   -0.1314991097
C        3.0491653736   -1.7907445187    0.6434536828
C        2.9792174998   -1.7441390021    2.0417477226
C        1.9083462306   -1.0968374527    2.6869974270
C        0.9122700080   -0.4951877493    1.8893406127
C        0.9832361113   -0.5444036577    0.4929823589
H        0.2070665653   -0.0748399849   -0.1049972501
H        0.0737283117    0.0215668130    2.3493418449
C        1.8283881370   -1.0446122746    4.1582436765
O        2.7179718929   -1.5063816611    4.8231421996
O        0.8069430448   -0.3321011349    4.7179690519
H        0.3143682362   -0.8555188143    5.3592646619
H        3.7639848603   -2.2109879133    2.6327768010
H        3.8827817988   -2.2918907582    0.1600555634
15   

H        2.1401767965   -1.2149808419   -1.2221850629
C        2.0728144851   -1.1849657043   -0.1381356251
C        3.0675677353   -1.7774010596    0.6453716515
C        2.9814837032   -1.7380561066    2.0430599210
C        1.8972699224   -1.1040087427    2.6790791215
C        0.9039353652   -0.5092710477    1.8727613333
C        0.9912126451   -0.5508131408    0.4771382826
H        0.2166526667   -0.0866860918   -0.1271193079
H        0.0540544853   -0.0052089719    2.3261748183
C        1.7990648920   -1.0595077510    4.1496555281
O        2.6824298442   -1.5240885205    4.8235997111
O        0.7732368745   -0.3583201056    4.6950982431
H        0.4261107457   -0.8002211738    5.4800723659
H        3.7636071977   -2.2007186295    2.6407422520
H        3.9110685007   -2.2686274569    0.1690454972
15   

H        2.1601889811   -1.2026896100   -1.2262257248
C        2.0836349368   -1.1782108771   -0.1426562155
C        3.0758384285   -1.7675620778    0.6464462199
C        2.9776806437   -1.7355753036    2.0435558146
C        1.8839058386   -1.1118564903    2.6732780226
C        0.8928406654   -0.5209387547    1.8614179816
C        0.9922110117   -0.5549804981    0.4664181788
H        0.2189999645   -0.0940818366   -0.1420069212
H        0.0348061332   -0.0268644285    2.3105968122
C        1.7732870249   -1.0739648113    4.1431193128
O        2.6438235577   -1.5544947917    4.8245015410
O        0.7398915337   -0.3917709077    4.6809002893
H        0.5372040601   -0.7272520831    5.5655056809
H        3.7575333623   -2.1962272446    2.6456776275
H        3.9264949387   -2.2509740542    0.1748994911
15   

H        2.1791507170   -1.1888164071   -1.2286764463
C        2.0953752044   -1.1690597703   -0.1455500678
C        3.0881110764   -1.7517162966    0.6479191237
C        2.9804213642   -1.7260520101    2.0444820780
C        1.8763411819   -1.1156801199    2.6690366972
C        0.8844860255   -0.5320734297    1.8529605443
C        0.9935922643   -0.5593418797    0.4585645417
H        0.2194761926   -0.1043450914   -0.1531378934
H        0.0178571079   -0.0499667333    2.2987515331
C        1.7556122556   -1.0841983111    4.1380086188
O        2.6168413565   -1.5725990153    4.8267423208
O        0.6983528723   -0.4453050078    4.6712337923
H        0.6316876847   -0.6531752277    5.6154516743
H        3.7601760297   -2.1820570193    2.6502232917
H        3.9462645071   -2.2254352008    0.1801500463
15   

H        2.1947095007   -1.1718836979   -1.2287384815
C        2.1059433311   -1.1574055665   -0.1459279742
C        3.1015683585   -1.7322141328    0.6496835521
C        2.9872630603   -1.7136297169    2.0458507173
C        1.8733529047   -1.1187092480    2.6677265128
C        0.8783353270   -0.5435165641    1.8495569428
C        0.9943547112   -0.5631266635    0.4556078916
H        0.2175713502   -0.1149024118   -0.1577147156
H        0.0034071208   -0.0748169507    2.2934742524
C        1.7453914501   -1.0948628721    4.1361247707
O        2.6008503096   -1.5892390423    4.8282279659
O        0.6573532767   -0.5109993448    4.6661296362
H        0.6999540803   -0.5653297355    5.6333404788
H        3.7687563076   -2.1642675527    2.6533533023
H        3.9667853164   -2.1948492051    0.1838447852
15   

H        2.2007740408   -1.1496269643   -1.2274284141
C        2.1102075961   -1.1421767805   -0.1446940846
C        3.1110459700   -1.7101493530    0.6492430445
C        2.9942850847   -1.7009237591    2.0452822864
C        1.8724262638   -1.1227707889    2.6688104591
C        0.8718637038   -0.5549442129    1.8522313943
C        0.9906762568   -0.5646230780    0.4583957239
H        0.2095002124   -0.1224208756   -0.1537144297
H       -0.0100654618   -0.1005649174    2.2971387744
C        1.7418442730   -1.1091455964    4.1372136933
O        2.5956126918   -1.6110677238    4.8255151724
O        0.6233657383   -0.5811850372    4.6669061589
H        0.7381070498   -0.4603452269    5.6215966941
H        3.7794817156   -2.1470665215    2.6513377403
H        3.9819550642   -2.1607520694    0.1822105286
15   

H        2.2023229959   -1.1263312046   -1.2237924442
C        2.1116071818   -1.1275168058   -0.1410404631
C        3.1179498033   -1.6912434071    0.6488785777
C        3.0009174348   -1.6934616976    2.0448985723
C        1.8731246582   -1.1313924943    2.6726566668
C        0.8666780553   -0.5683507149    1.8599082887
C        0.9860370011   -0.5661685696    0.4660623641
H        0.2002581015   -0.1280467939   -0.1430885489
H       -0.0208811737   -0.1277829758    2.3073823376
C        1.7424952170   -1.1297652323    4.1413428617
O        2.5948125588   -1.6433128635    4.8216728059
O        0.5999815756   -0.6453155250    4.6728259354
H        0.7516274357   -0.3386777537    5.5778857632
H        3.7902009262   -2.1370220458    2.6475650935
H        3.9931617574   -2.1301543608    0.1787496891
15   

H        2.2019330374   -1.1030761801   -1.2186203312
C        2.1114248718   -1.1150032043   -0.1359071700
C        3.1218749104   -1.6789892531    0.6485084376
C        3.0050437932   -1.6953605731    2.0444215786
C        1.8734583519   -1.1471599729    2.6777037519
C        0.8624335413   -0.5844841868    1.8703625877
C        0.9817015052   -0.5680564988    0.4765864243
H        0.1923695408   -0.1307021305   -0.1285255770
H       -0.0293275806   -0.1563176027    2.3213564432
C        1.7438414781   -1.1595802722    4.1464666813
O        2.5896860048   -1.6921495693    4.8182448066
O        0.5891282398   -0.6919400859    4.6844710685
H        0.7563898927   -0.2017431636    5.4991409894
H        3.7973494361   -2.1395680764    2.6426935784
H        3.9999988508   -2.1074715082    0.1741827892
15   

H        2.1946308284   -1.0679484229   -1.2109995926
C        2.1060307939   -1.0932457061   -0.1283424687
C        3.1233949638   -1.6562181196    0.6477395605
C        3.0090227516   -1.6901197056    2.0434690018
C        1.8730968263   -1.1607140668    2.6849623392
C        0.8545236916   -0.5998360615    1.8860059832
C        0.9715929806   -0.5655024911    0.4923091904
H        0.1766307197   -0.1299972994   -0.1067559571
H       -0.0420988806   -0.1883393357    2.3426536303
C        1.7466703787   -1.1927006338    4.1535260743
O        2.5937320746   -1.7315294789    4.8159687824
O        0.5843146081   -0.7355471359    4.7051185344
H        0.7467312763   -0.0720023406    5.3842247046
H        3.8064642929   -2.1339985834    2.6352304512
H        4.0048255936   -2.0707124813    0.1671023633
15   

H        2.1895536272   -1.0232727703   -1.1989567891
C        2.1008603837   -1.0661803978   -0.1168365532
C        3.1199828948   -1.6384020793    0.6501035681
C        3.0051616362   -1.6959426130    2.0449480366
C        1.8678247416   -1.1799709906    2.6945615541
C        0.8468875974   -0.6104173870    1.9050435989
C        0.9641503406   -0.5531001735    0.5120572510
H        0.1672385341   -0.1122411315   -0.0805122816
H       -0.0529891946   -0.2128156130    2.3674493670
C        1.7415377547   -1.2388741136    4.1617086621
O        2.5707483659   -1.8108536126    4.8153960276
O        0.6010843426   -0.7318112742    4.7354542568
H        0.7746778590    0.0717176422    5.2340679807
H        3.8033706233   -2.1476208691    2.6298754051
H        4.0028523946   -2.0422423900    0.1630034543
15   

H        2.1921446062   -0.9605974315   -1.1810200967
C        2.1017132765   -1.0239372208   -0.1000132750
C        3.1210881335   -1.6080302313    0.6575738216
C        3.0035753016   -1.6932677586    2.0506919657
C        1.8640302258   -1.1922565509    2.7077658781
C        0.8422279193   -0.6113281586    1.9279227972
C        0.9620165596   -0.5268571395    0.5364679462
H        0.1642448875   -0.0789406598   -0.0496845437
H       -0.0619677478   -0.2297735623    2.3953253225
C        1.7335388424   -1.2860344471    4.1719997394
O        2.5470548902   -1.8862473052    4.8167177345
O        0.6300298214   -0.7166576198    4.7707461311
H        0.8013009899    0.1859379278    5.0515046476
H        3.8011097347   -2.1552935276    2.6285831415
H        4.0058109733   -2.0004391477    0.1644334382
15   

H        2.1947905435   -0.8990243357   -1.1601075413
C        2.1029194124   -0.9808819138   -0.0804281310
C        3.1218050837   -1.5772930932    0.6681239540
C        3.0020247196   -1.6878596476    2.0591758077
C        1.8614432079   -1.1988671892    2.7232305567
C        0.8394302670   -0.6061768259    1.9525854274
C        0.9613585978   -0.4969623836    0.5629741311
H        0.1632730764   -0.0417685483   -0.0171971134
H       -0.0685387152   -0.2388954335    2.4240355840
C        1.7266404034   -1.3255009760    4.1840133022
O        2.5229630600   -1.9593881536    4.8163580767
O        0.6772146513   -0.6878127990    4.8066287795
H        0.8182109921    0.2612737249    4.8588856084
H        3.7983818707   -2.1606578356    2.6301087989
H        4.0075071259   -1.9604993530    0.1694356003
15   

H        2.1830815956   -0.8599830694   -1.1417066434
C        2.0933665249   -0.9537659290   -0.0627767797
C        3.1134777200   -1.5593607434    0.6765687670
C        2.9963901439   -1.6861611184    2.0663487299
C        1.8580785616   -1.2032496140    2.7385554047
C        0.8338638345   -0.6022855879    1.9771498592
C        0.9530608393   -0.4773175364    0.5885286924
H        0.1535261270   -0.0169286751    0.0144028472
H       -0.0753475435   -0.2441881197    2.4531123112
C        1.7265273604   -1.3498802070    4.1973750642
O        2.5033872645   -2.0224477502    4.8141403649
O        0.7378355067   -0.6540096401    4.8415042669
H        0.8071218129    0.2927487769    4.6857321843
H        3.7933181518   -2.1665978478    2.6302258254
H        3.9978917692   -1.9375461882    0.1717017937
15   

H        2.1509951828   -0.8493910614   -1.1307552524
C        2.0675935837   -0.9480653884   -0.0517217892
C        3.0901205745   -1.5611857446    0.6778332513
C        2.9814591863   -1.6943069166    2.0675446996
C        1.8501846423   -1.2091537288    2.7498341303
C        0.8222970044   -0.6018733164    1.9982592445
C        0.9330081766   -0.4711182874    0.6093184676
H        0.1313468030   -0.0062613863    0.0417367869
H       -0.0842845254   -0.2453323752    2.4800808685
C        1.7320711998   -1.3605416134    4.2090352845
O        2.4827789562   -2.0780719343    4.8083070248
O        0.8064597221   -0.6146808271    4.8726823357
H        0.7703691066    0.2911116053    4.5467541279
H        3.7803787707   -2.1800465312    2.6241618322
H        3.9700394571   -1.9400750034    0.1656003784
15   

H        2.1027666663   -0.8653564627   -1.1266622233
C        2.0293820202   -0.9624314224   -0.0467302766
C        3.0544668708   -1.5829831002    0.6726187044
C        2.9592550297   -1.7133359521    2.0633910184
C        1.8401149171   -1.2169578988    2.7574175131
C        0.8082864112   -0.6034125862    2.0161267038
C        0.9054157332   -0.4760752198    0.6256666090
H        0.1017502174   -0.0061339380    0.0651125612
H       -0.0914630671   -0.2397066555    2.5048473608
C        1.7446223341   -1.3600076061    4.2189671693
O        2.4629092781   -2.1234719283    4.8019672369
O        0.8796570551   -0.5710231832    4.8998162704
H        0.7137027303    0.2641688277    4.4462888539
H        3.7606983453   -2.2034392421    2.6126291635
H        3.9263729923   -1.9689665840    0.1519699327
15   

H        2.0480327377   -0.9006999728   -1.1278382148
C        1.9857226398   -0.9915470832   -0.0466536698
C        3.0099677716   -1.6236413581    0.6634477785
C        2.9296715870   -1.7447757426    2.0558029518
C        1.8277392243   -1.2265442734    2.7612820245
C        0.7955654806   -0.6020367182    2.0293059998
C        0.8773950858   -0.4849551515    0.6367676873
H        0.0745541512   -0.0059431189    0.0827394863
H       -0.0927917249   -0.2204022125    2.5244137626
C        1.7595309640   -1.3521489483    4.2260582469
O        2.4386431647   -2.1607922615    4.7957947108
O        0.9540667574   -0.5217591351    4.9195930511
H        0.6435555903    0.2202057428    4.3848023805
H        3.7314146548   -2.2418335698    2.5984038552
H        3.8703230614   -2.0244540326    0.1347925068
15   

H        1.9918043720   -0.9392896043   -1.1330642973
C        1.9428146968   -1.0198652287   -0.0503758889
C        2.9616921079   -1.6703989611    0.6501090282
C        2.8991582388   -1.7770378879    2.0443389970
C        1.8214331698   -1.2257553155    2.7626955882
C        0.7944370369   -0.5812672739    2.0399377050
C        0.8580649212   -0.4798231680    0.6450004915
H        0.0601783705    0.0153307300    0.0980743714
H       -0.0754923522   -0.1674559545    2.5406458925
C        1.7842871622   -1.3319355372    4.2312349782
O        2.4463606446   -2.1623385220    4.7902618717
O        1.0071228433   -0.4880721497    4.9361936299
H        0.5258446077    0.1308077647    4.3713537733
H        3.6984651348   -2.2865930827    2.5789411461
H        3.8049805496   -2.0954934475    0.1129579227
