6    

H       -0.5819221015   -0.0611933976   -0.7604660712
C        0.0265059577    0.3286329345    0.0624007532
H       -0.6530489331    0.6945203132    0.8394248649
O        0.8557890124   -0.6603361910    0.5687622911
H        0.3697194369   -1.4836917603    0.6802302166
Br       1.1586914613    1.7754620478   -0.5756473465
6    

H       -0.5798455079   -0.0852714833   -0.7324643824
C        0.0176068127    0.3321313993    0.0848333952
H       -0.6676484125    0.7406579890    0.8351743725
O        0.8212930565   -0.6421281097    0.6507244346
H        0.4136822223   -1.5103742218    0.5776211197
Br       1.1692768666    1.7554480870   -0.6005021223
6    

H       -0.5879688026   -0.1051186267   -0.7085953650
C        0.0036063382    0.3310030728    0.1031337396
H       -0.6820241152    0.7852551178    0.8263698444
O        0.7673523188   -0.6344618489    0.7259356328
H        0.4809464590   -1.5203882751    0.4858341027
Br       1.1874072660    1.7302178647   -0.6185523171
6    

H       -0.6072081564   -0.1190168295   -0.6881222423
C       -0.0146778304    0.3262494839    0.1179106504
H       -0.6960411374    0.8235784142    0.8164274527
O        0.6999666434   -0.6364018446    0.7873006398
H        0.5667292032   -1.5107505290    0.4089977014
Br       1.2109380020    1.6979772312   -0.6321344240
6    

H       -0.2611780611   -0.1104345490   -0.9362817841
C       -0.0530068624    0.2861478884    0.0629533344
H       -0.9957111853    0.6295538062    0.5021667555
O        0.4857228643   -0.6808204081    0.8633352535
H        0.8221988197   -1.4253920060    0.3532513752
Br       1.1653800933    1.8663572854   -0.0828251648
6    

H       -0.2911891201   -0.1086875144   -0.9388442908
C       -0.0763870936    0.2780318145    0.0628924880
H       -1.0103279945    0.6543797691    0.4937659064
O        0.4121303314   -0.7123610297    0.8589668526
H        0.9225117354   -1.3576735053    0.3551127491
Br       1.2029446674    1.8166542677   -0.0823387185
6    

H       -0.3257535698   -0.0952689759   -0.9455634359
C       -0.0986843349    0.2718448672    0.0608848946
H       -1.0205882138    0.6745865382    0.4938200610
O        0.3506349801   -0.7494746197    0.8376581246
H        1.0134388172   -1.2794658174    0.3760676553
Br       1.2388736074    1.7587335944   -0.0823001346
6    

H       -0.3654030247   -0.0692836019   -0.9557822542
C       -0.1171924212    0.2683668356    0.0560238990
H       -1.0233960686    0.6907972425    0.5031134919
O        0.3026500753   -0.7917456530    0.8006290524
H        1.0910032222   -1.1983819384    0.4167365848
Br       1.2697432603    1.6981847423   -0.0830490317
6    

H       -0.4123836092   -0.0337435486   -0.9671995593
C       -0.1305534697    0.2654958399    0.0479206866
H       -1.0172669961    0.6988720593    0.5227484108
O        0.2692791499   -0.8379763960    0.7479846288
H        1.1516847444   -1.1232876677    0.4770211886
Br       1.2926675790    1.6441641515   -0.0870705316
6    

H       -0.4646750513    0.0081782681   -0.9787055003
C       -0.1379202271    0.2621609083    0.0353002704
H       -1.0020070351    0.6961137178    0.5496603400
O        0.2513387554   -0.8849762839    0.6811041859
H        1.1919756744   -1.0600821392    0.5556259292
Br       1.3067299337    1.6027725353   -0.0941469222
6    

H       -0.5180243944    0.0536228064   -0.9879656192
C       -0.1394461515    0.2585205691    0.0191075890
H       -0.9772518747    0.6830583162    0.5824596761
O        0.2490553683   -0.9282219899    0.6033881813
H        1.2083814522   -1.0099822520    0.6461968028
Br       1.3139865548    1.5763468926   -0.1037999700
6    

H       -0.5667842515    0.0957640479   -0.9938353124
C       -0.1369423178    0.2528388716    0.0011881002
H       -0.9445408894    0.6590839568    0.6194580342
O        0.2623554178   -0.9632881261    0.5193244349
H        1.1995706802   -0.9710181467    0.7414743083
Br       1.3173629474    1.5651724938   -0.1165163957
6    

H       -0.6081286073    0.1314880267   -0.9949978379
C       -0.1313884678    0.2461613851   -0.0156689050
H       -0.9039515351    0.6285889053    0.6599023555
O        0.2892211148   -0.9870997005    0.4346908973
H        1.1649078092   -0.9434950191    0.8348089703
Br       1.3201677998    1.5664709752   -0.1340668405
6    

H       -0.6419488562    0.1577608267   -0.9895696823
C       -0.1230715823    0.2396502919   -0.0285349156
H       -0.8581091406    0.5945863248    0.7016868119
O        0.3282462997   -0.9985999640    0.3556470561
H        1.1071360904   -0.9316587934    0.9213806572
Br       1.3210540778    1.5806252183   -0.1596583155
6    

H       -0.6670824468    0.1730452637   -0.9776351122
C       -0.1113872168    0.2352533965   -0.0358973131
H       -0.8120068302    0.5611972190    0.7402047534
O        0.3774350281   -0.9984456838    0.2882830578
H        1.0308205092   -0.9410299855    0.9976488602
Br       1.3169336847    1.6075746076   -0.1952333407
6    

H       -0.6810098304    0.1778395090   -0.9617275946
C       -0.0951204216    0.2348364147   -0.0381330478
H       -0.7692892048    0.5331571865    0.7717247411
O        0.4350534840   -0.9885876171    0.2371669014
H        0.9413891649   -0.9733144171    1.0604121375
Br       1.3051297936    1.6446851914   -0.2392665551
6    

H       -0.6841553956    0.1712974632   -0.9449737702
C       -0.0759810870    0.2376205688   -0.0365323941
H       -0.7331233020    0.5123490474    0.7953087149
O        0.4992795391   -0.9702849559    0.2051087478
H        0.8434556474   -1.0239495674    1.1061796402
Br       1.2858670524    1.6876943998   -0.2876829556
6    

H       -0.6776667023    0.1567434828   -0.9288585051
C       -0.0541035143    0.2444418254   -0.0327484379
H       -0.7009575380    0.5025447698    0.8123143249
O        0.5686652282   -0.9449394665    0.1926044476
H        0.7418319019   -1.0861820341    1.1311410242
Br       1.2612784149    1.7286160395   -0.3363304650
6    

H       -0.6645022417    0.1341181835   -0.9141835532
C       -0.0317514077    0.2540993244   -0.0283176442
H       -0.6729603612    0.5038244678    0.8234875784
O        0.6415120808   -0.9122691955    0.2000685532
H        0.6407428297   -1.1527422561    1.1327858300
Br       1.2338911660    1.7630614695   -0.3804350573
6    

H       -0.6485486292    0.1056383261   -0.8988965211
C       -0.0106182736    0.2672342124   -0.0234255766
H       -0.6488710644    0.5180552997    0.8302520251
O        0.7145065452   -0.8715399421    0.2273489730
H        0.5460383080   -1.2178260418    1.1088566386
Br       1.2066279175    1.7868277891   -0.4178072392
6    

H       -0.6343144621    0.0713779936   -0.8783279820
C        0.0070418498    0.2813309860   -0.0157236117
H       -0.6309284566    0.5423497620    0.8351174306
O        0.7794815098   -0.8248474683    0.2724918507
H        0.4640668712   -1.2806980957    1.0581460728
Br       1.1837256052    1.7998394336   -0.4510328176
6    

H       -0.6210064910    0.0346573262   -0.8516196235
C        0.0202152108    0.2955345926   -0.0029394281
H       -0.6229117042    0.5738304472    0.8385409847
O        0.8292244082   -0.7759765323    0.3327646787
H        0.4010101576   -1.3405730816    0.9833066522
Br       1.1676640157    1.8038219900   -0.4828482425
6    

H       -0.6066069079   -0.0010291893   -0.8214505245
C        0.0279370110    0.3091127819    0.0155685208
H       -0.6264529349    0.6102102005    0.8404159157
O        0.8598532687   -0.7292997456    0.4051711012
H        0.3628959842   -1.3956224897    0.8906087906
Br       1.1580037709    1.8004475411   -0.5146712852
6    

H       -0.5921713533   -0.0332633817   -0.7905978061
C        0.0300331009    0.3205165246    0.0382941858
H       -0.6381935708    0.6505065475    0.8407530724
O        0.8687437554   -0.6898228926    0.4854328259
H        0.3520975846   -1.4443088187    0.7870949006
Br       1.1552147913    1.7905936092   -0.5461351047
