15   

H        1.8844934813   -1.1974199328   -1.1372585076
C        1.8989338428   -1.1491126758   -0.0516464060
C        2.9606387107   -1.7132784029    0.6606500472
C        2.9827134516   -1.6488091729    2.0589104855
C        1.9377028315   -1.0273779190    2.7676380940
C        0.8787665618   -0.4514143941    2.0340831563
C        0.8609407193   -0.5150153144    0.6357977235
H        0.0425732537   -0.0641725281    0.0808481119
H        0.0688489159    0.0724052690    2.5336846495
C        1.9680883683   -0.9741836753    4.2380957310
O        2.9986688411   -1.1458666493    4.8281181973
O        0.8176975165   -0.7689074310    4.9117198680
H        0.0392111191   -0.8750488027    4.3499162352
H        3.8160685005   -2.0885454860    2.6033599657
H        3.7727417136   -2.2015674670    0.1292361946
15   

H        1.8836838228   -1.2630102995   -1.1392453820
C        1.8975226228   -1.2019008591   -0.0542863996
C        2.9496726298   -1.7733271092    0.6666857004
C        2.9716428888   -1.6911707939    2.0642106539
C        1.9362479976   -1.0429490422    2.7629975964
C        0.8870062589   -0.4610401822    2.0206384482
C        0.8685993141   -0.5432295389    0.6235234783
H        0.0576356187   -0.0865723385    0.0625007309
H        0.0863565279    0.0823152359    2.5150111518
C        1.9669687079   -0.9570535557    4.2318023284
O        2.9799005709   -1.1865343014    4.8318113293
O        0.8201727735   -0.6788308861    4.8963827097
H        0.0378198781   -0.9607343381    4.4072733019
H        3.7987929909   -2.1346289770    2.6149757989
H        3.7551817092   -2.2796939416    0.1422564926
15   

H        1.8958569309   -1.3125259066   -1.1453664425
C        1.9057477617   -1.2419899925   -0.0609622126
C        2.9499882473   -1.8156634889    0.6699219836
C        2.9671852532   -1.7205183146    2.0668767252
C        1.9351435201   -1.0554382795    2.7547949905
C        0.8935607575   -0.4730763691    2.0023511295
C        0.8794362900   -0.5687346326    0.6062297250
H        0.0740233217   -0.1107504514    0.0383714467
H        0.0955333549    0.0802574769    2.4903453114
C        1.9609905227   -0.9456727612    4.2222483695
O        2.9519553600   -1.2277853219    4.8353878664
O        0.8187513595   -0.5924102168    4.8733903761
H        0.0425735843   -1.0278828458    4.5047395272
H        3.7891216163   -2.1644748870    2.6248738138
H        3.7535383553   -2.3330195827    0.1533504127
15   

H        1.9219720042   -1.3339150238   -1.1566100371
C        1.9243966346   -1.2605741599   -0.0723826870
C        2.9607576683   -1.8366227350    0.6679756647
C        2.9681674967   -1.7376220810    2.0649096843
C        1.9345567206   -1.0648735451    2.7430506340
C        0.9004968270   -0.4818507793    1.9810003303
C        0.8957308765   -0.5817157889    0.5852595656
H        0.0953830273   -0.1228756359    0.0110261548
H        0.0999305699    0.0732027936    2.4631309156
C        1.9493342915   -0.9460609383    4.2102323805
O        2.9158055587   -1.2749738308    4.8379288803
O        0.8161862423   -0.5120029357    4.8460307092
H        0.0570692655   -1.0667189309    4.6424410287
H        3.7844014750   -2.1830020199    2.6299490051
H        3.7659050193   -2.3585282615    0.1586084712
15   

H        1.9614596250   -1.3224512932   -1.1733832482
C        1.9526695294   -1.2536314427   -0.0889316556
C        2.9803840952   -1.8339635220    0.6601906774
C        2.9726531113   -1.7413276198    2.0576741910
C        1.9329481602   -1.0694519503    2.7274529346
C        0.9072827512   -0.4834596686    1.9565352827
C        0.9172636276   -0.5772635543    0.5605015282
H        0.1222317620   -0.1165979007   -0.0195440415
H        0.0997709969    0.0659217265    2.4336876287
C        1.9291469593   -0.9584922434    4.1957048625
O        2.8728577852   -1.3252648400    4.8365564315
O        0.8133844471   -0.4410311361    4.8144917730
H        0.0849205742   -1.0676986832    4.8165559905
H        3.7819587390   -2.1906072046    2.6293903202
H        3.7902749406   -2.3546124494    0.1571933130
15   

H        2.0124571597   -1.2864738655   -1.1912262121
C        1.9887778644   -1.2287893830   -0.1063863978
C        3.0061172817   -1.8165346210    0.6511130467
C        2.9781725335   -1.7393906946    2.0493701211
C        1.9290750453   -1.0744375095    2.7116018659
C        0.9136898411   -0.4819135600    1.9320996170
C        0.9434510614   -0.5606567091    0.5354814637
H        0.1548852802   -0.0960876052   -0.0501666230
H        0.0962557981    0.0568904229    2.4044461455
C        1.8997871122   -0.9847514010    4.1816005266
O        2.8238530391   -1.3846174627    4.8327035659
O        0.8135777641   -0.3840208727    4.7813433930
H        0.1343895329   -1.0226726858    5.0130015120
H        3.7788311081   -2.1957348333    2.6274558956
H        3.8230991647   -2.3317322462    0.1541034213
15   

H        2.0645040698   -1.2497906715   -1.2060702929
C        2.0244607411   -1.2045399224   -0.1211551944
C        3.0313922595   -1.7988626494    0.6450793462
C        2.9814344963   -1.7388697997    2.0436468526
C        1.9210670212   -1.0834191158    2.6976824429
C        0.9160063758   -0.4850807843    1.9090843775
C        0.9674051393   -0.5471102313    0.5123178425
H        0.1854251623   -0.0791882137   -0.0793918201
H        0.0874402423    0.0417422526    2.3755824136
C        1.8644648008   -1.0160943889    4.1688027370
O        2.7728100942   -1.4446641856    4.8270544181
O        0.8118864082   -0.3497796604    4.7476219735
H        0.2118289264   -0.9483311713    5.2015783603
H        3.7735219214   -2.2016542782    2.6282144473
H        3.8568854468   -2.3066816537    0.1546784748
15   

H        2.1054458985   -1.2293156818   -1.2160888669
C        2.0505343460   -1.1935997582   -0.1314942154
C        3.0484454591   -1.7918559529    0.6434470345
C        2.9786916632   -1.7449524042    2.0417404804
C        1.9079282062   -1.0974841739    2.6870002409
C        0.9117385947   -0.4960068872    1.8893557603
C        0.9825103536   -0.5455212645    0.4929979219
H        0.2062815178   -0.0760465948   -0.1049746576
H        0.0733027259    0.0209138660    2.3493632125
C        1.8283881370   -1.0446122746    4.1582436765
O        2.7179718929   -1.5063816611    4.8231421996
O        0.8069430448   -0.3321011349    4.7179690519
H        0.3143682362   -0.8555188143    5.3592646619
H        3.7635691452   -2.2116277454    2.6327607742
H        3.8820063449   -2.2930861543    0.1600399870
15   

H        2.1394884488   -1.2160437317   -1.2221952617
C        2.0722206705   -1.1858854656   -0.1381438981
C        3.0670435522   -1.7782159287    0.6453542124
C        2.9811016362   -1.7386523031    2.0430447998
C        1.8969655239   -1.1044842747    2.6790749374
C        0.9035467174   -0.5098749809    1.8727669257
C        0.9906817477   -0.5516359325    0.4771412702
H        0.2160772332   -0.0875753004   -0.1271102473
H        0.0537419836   -0.0056923068    2.3261890526
C        1.7990648920   -1.0595077510    4.1496555281
O        2.6824298442   -1.5240885205    4.8235997111
O        0.7732368745   -0.3583201056    4.6950982431
H        0.4261107457   -0.8002211738    5.4800723659
H        3.7633063333   -2.2011859389    2.6407208698
H        3.9105043787   -2.2695025310    0.1690192741
15   

H        2.1597450014   -1.2033827904   -1.2262396284
C        2.0832520782   -1.1788108003   -0.1426679008
C        3.0755009188   -1.7680931228    0.6464288836
C        2.9774349526   -1.7359638101    2.0435414888
C        1.8837099214   -1.1121668223    2.6732721591
C        0.8925899999   -0.5213333829    1.8614180040
C        0.9918684611   -0.5555177583    0.4664149818
H        0.2186282897   -0.0946627278   -0.1420061458
H        0.0346042369   -0.0271808192    2.3106039102
C        1.7732870249   -1.0739648113    4.1431193128
O        2.6438235577   -1.5544947917    4.8245015410
O        0.7398915337   -0.3917709077    4.6809002893
H        0.5372040601   -0.7272520831    5.5655056809
H        3.7573404069   -2.1965313261    2.6456597116
H        3.9261318725   -2.2515439287    0.1748757689
15   

H        2.1789417306   -1.1891637316   -1.2286857817
C        2.0951948253   -1.1693602192   -0.1455580442
C        3.0879520108   -1.7519819148    0.6479100328
C        2.9803054575   -1.7262461412    2.0444749507
C        1.8762486174   -1.1158353102    2.6690326405
C        0.8843676681   -0.5322711391    1.8529575483
C        0.9934307268   -0.5596110976    0.4585595175
H        0.2193010105   -0.1046364105   -0.1531420867
H        0.0177617862   -0.0501255251    2.2987512152
C        1.7556122556   -1.0841983111    4.1380086188
O        2.6168413565   -1.5725990153    4.8267423208
O        0.6983528723   -0.4453050078    4.6712337923
H        0.6316876847   -0.6531752277    5.6154516743
H        3.7600852319   -2.1822088060    2.6502157512
H        3.9460935904   -2.2257201922    0.1801388045
15   

H        2.1947094792   -1.1718836727   -1.2287385062
C        2.1059433140   -1.1574055210   -0.1459279953
C        3.1015683411   -1.7322140823    0.6496835349
C        2.9872630524   -1.7136296650    2.0458507020
C        1.8733529020   -1.1187092024    2.6677265062
C        0.8783353263   -0.5435164992    1.8495569374
C        0.9943547046   -0.5631266034    0.4556078789
H        0.2175713468   -0.1149023522   -0.1577147327
H        0.0034071243   -0.0748168763    2.2934742501
C        1.7453914501   -1.0948628721    4.1361247707
O        2.6008503096   -1.5892390423    4.8282279659
O        0.6573532767   -0.5109993448    4.6661296362
H        0.6999540803   -0.5653297355    5.6333404788
H        3.7687562977   -2.1642675030    2.6533532891
H        3.9667852933   -2.1948491618    0.1838447673
15   

H        2.2009564699   -1.1492650777   -1.2274151454
C        2.1103656109   -1.1418640698   -0.1446825198
C        3.1111859100   -1.7098731743    0.6492512317
C        2.9943875517   -1.7007221954    2.0452877797
C        1.8725081976   -1.1226097820    2.6688164785
C        0.8719678279   -0.5547387795    1.8522412349
C        0.9908178658   -0.5643429958    0.4584081934
H        0.2096532446   -0.1221174909   -0.1536996991
H       -0.0099820025   -0.1003997466    2.2971487601
C        1.7418442730   -1.1091455964    4.1372136933
O        2.5956126918   -1.6110677238    4.8255151724
O        0.6233657383   -0.5811850372    4.6669061589
H        0.7381070498   -0.4603452269    5.6215966941
H        3.7795617771   -2.1469087245    2.6513400764
H        3.9821051088   -2.1604554830    0.1822178420
15   

H        2.2026725582   -1.1255863422   -1.2237605441
C        2.1119104404   -1.1268733556   -0.1410125452
C        3.1182191306   -1.6906747421    0.6488962804
C        3.0011151512   -1.6930466547    2.0449098515
C        1.8732826452   -1.1310614713    2.6726712319
C        0.8668779826   -0.5679287678    1.8599343098
C        0.9863085894   -0.5655928921    0.4660946054
H        0.2005509643   -0.1274234284   -0.1430494398
H       -0.0207215343   -0.1274441730    2.3074102815
C        1.7424952170   -1.1297652323    4.1413428617
O        2.5948125588   -1.6433128635    4.8216728059
O        0.5999815756   -0.6453155250    4.6728259354
H        0.7516274357   -0.3386777537    5.5778857632
H        3.7903554682   -2.1366963883    2.6475672532
H        3.9934504228   -2.1295431681    0.1787636035
15   

H        2.2024647943   -1.1019284682   -1.2185600730
C        2.1118859667   -1.1140116377   -0.1358545254
C        3.1222846264   -1.6781120412    0.6485449756
C        3.0053443578   -1.6947199179    2.0444459248
C        1.8736981091   -1.1466495356    2.6777309888
C        0.8627367266   -0.5838345968    1.8704080842
C        0.9821139290   -0.5671701226    0.4766438385
H        0.1928142499   -0.1297429821   -0.1284576797
H       -0.0290859098   -0.1557968622    2.3214026111
C        1.7438414781   -1.1595802722    4.1464666813
O        2.5896860048   -1.6921495693    4.8182448066
O        0.5891282398   -0.6919400859    4.6844710685
H        0.7563898927   -0.2017431636    5.4991409894
H        3.7975844503   -2.1390644402    2.6427032296
H        4.0004383494   -2.1065282071    0.1742146154
15   

H        2.1953520351   -1.0663821452   -1.2108988459
C        2.1066555064   -1.0918922569   -0.1282545733
C        3.1239507307   -1.6550179015    0.6478066011
C        3.0094300871   -1.6892420570    2.0435156712
C        1.8734204764   -1.1600167546    2.6850079641
C        0.8549322959   -0.5989517849    1.8860753410
C        0.9721502499   -0.5642951572    0.4923987611
H        0.1772314336   -0.1286928444   -0.1066534723
H       -0.0417744930   -0.1876332615    2.3427182071
C        1.7466703787   -1.1927006338    4.1535260743
O        2.5937320746   -1.7315294789    4.8159687824
O        0.5843146081   -0.7355471359    4.7051185344
H        0.7467312763   -0.0720023406    5.3842247046
H        3.8067838750   -2.1333059041    2.6352569607
H        4.0054229792   -2.0694202087    0.1671661457
15   

H        2.1905530725   -1.0213705979   -1.1987918161
C        2.1017217001   -1.0645347625   -0.1166930575
C        3.1207455999   -1.6369399047    0.6502415571
C        3.0057164336   -1.6948711449    2.0450527949
C        1.8682636948   -1.1791197471    2.6946364156
C        0.8474456531   -0.6093412105    1.9051267593
C        0.9649167048   -0.5516326128    0.5121743374
H        0.1680685512   -0.1106581218   -0.0803951179
H       -0.0525446752   -0.2119585641    2.3675002394
C        1.7415377547   -1.2388741136    4.1617086621
O        2.5707483659   -1.8108536126    4.8153960276
O        0.6010843426   -0.7318112742    4.7354542568
H        0.7746778590    0.0717176422    5.2340679807
H        3.8038067460   -2.1467743208    2.6299686789
H        4.0036752457   -2.0406684835    0.1631577534
15   

H        2.1933846826   -0.9585698494   -1.1807849122
C        2.1027765574   -1.0221805329   -0.0998087464
C        3.1220266493   -1.6064637373    0.6578004888
C        3.0042532312   -1.6921163142    2.0508718764
C        1.8645631749   -1.1913433983    2.7078743290
C        0.8429088874   -0.6101801240    1.9280108764
C        0.9629588594   -0.5252930371    0.5366048631
H        0.1652693878   -0.0772582708   -0.0495695582
H       -0.0614249606   -0.2288643589    2.3953416342
C        1.7335388424   -1.2860344471    4.1719997394
O        2.5470548902   -1.8862473052    4.8167177345
O        0.6300298214   -0.7166576198    4.7707461311
H        0.8013009899    0.1859379278    5.0515046476
H        3.8016452462   -2.1543808109    2.6287687605
H        4.0068281986   -1.9987522321    0.1647056498
15   

H        2.1961110217   -0.8971941864   -1.1598400829
C        2.1040464642   -0.9792933554   -0.0801954522
C        3.1227979022   -1.5758693301    0.6684095192
C        3.0027376329   -1.6868087663    2.0594089056
C        1.8619996835   -1.1980361789    2.7233555771
C        0.8401436209   -0.6051402050    1.9526577138
C        0.9623529129   -0.4955515519    0.5631023157
H        0.1643573739   -0.0402569982   -0.0171143352
H       -0.0679703653   -0.2380808738    2.4240024817
C        1.7266404034   -1.3255009760    4.1840133022
O        2.5229630600   -1.9593881536    4.8163580767
O        0.6772146513   -0.6878127990    4.8066287795
H        0.8182109921    0.2612737249    4.8588856084
H        3.7989483389   -2.1598204719    2.6303690817
H        4.0085883059   -1.9589648464    0.1697934205
15   

H        2.1842849761   -0.8585484546   -1.1414676541
C        2.0943900537   -0.9525181538   -0.0625689957
C        3.1143785940   -1.5582362241    0.6768466089
C        2.9970342199   -1.6853272043    2.0665800224
C        1.8585780778   -1.2025920394    2.7386674806
C        0.8345051402   -0.6014724273    1.9771906666
C        0.9539600724   -0.4762123405    0.5886200374
H        0.1545086937   -0.0157496643    0.0144366267
H       -0.0748371003   -0.2435543407    2.4530390442
C        1.7265273604   -1.3498802070    4.1973750642
O        2.5033872645   -2.0224477502    4.8141403649
O        0.7378355067   -0.6540096401    4.8415042669
H        0.8071218129    0.2927487769    4.6857321843
H        3.7938325540   -2.1659294281    2.6304989296
H        3.9988767464   -1.9363331332    0.1720611944
15   

H        2.1519653365   -0.8483859101   -1.1305807061
C        2.0684166743   -0.9471889802   -0.0515703903
C        3.0908445679   -1.5603923904    0.6780555116
C        2.9819751121   -1.6937156202    2.0677329161
C        1.8505829423   -1.2086875545    2.7499152105
C        0.8228090106   -0.6013009844    1.9982675876
C        0.9337291979   -0.4703426595    0.6093645536
H        0.1321359180   -0.0054368794    0.0417260988
H       -0.0838768697   -0.2448882448    2.4799885118
C        1.7320711998   -1.3605416134    4.2090352845
O        2.4827789562   -2.0780719343    4.8083070248
O        0.8064597221   -0.6146808271    4.8726823357
H        0.7703691066    0.2911116053    4.5467541279
H        3.7807920952   -2.1795706969    2.6243960495
H        3.9708332751   -1.9392194385    0.1658971032
15   

H        2.1034461632   -0.8647365730   -1.1265591134
C        2.0299575167   -0.9618894704   -0.0466412451
C        3.0549721898   -1.5824923413    0.6727650094
C        2.9596140616   -1.7129687178    2.0635169884
C        1.8403917218   -1.2166666574    2.7574642781
C        0.8086433226   -0.6030553761    2.0161143913
C        0.9059195458   -0.4755936662    0.6256774040
H        0.1023027506   -0.0056222677    0.0650782923
H       -0.0911778489   -0.2394278209    2.5047618585
C        1.7446223341   -1.3600076061    4.2189671693
O        2.4629092781   -2.1234719283    4.8019672369
O        0.8796570551   -0.5710231832    4.8998162704
H        0.7137027303    0.2641688277    4.4462888539
H        3.7609857894   -2.2031444717    2.6127944974
H        3.9269276520   -1.9684390083    0.1521719959
15   

H        2.0483847230   -0.9004159995   -1.1277959959
C        1.9860204885   -0.9912980087   -0.0466175088
C        3.0102283338   -1.6234171368    0.6635164206
C        2.9298562034   -1.7446075110    2.0558630527
C        1.8278820336   -1.2264087847    2.7613002882
C        0.7957507447   -0.6018691514    2.0292906888
C        0.8776565140   -0.4847312925    0.6367623700
H        0.0748416934   -0.0057043244    0.0827089999
H       -0.0926422977   -0.2202687018    2.5243605773
C        1.7595309640   -1.3521489483    4.2260582469
O        2.4386431647   -2.1607922615    4.7957947108
O        0.9540667574   -0.5217591351    4.9195930511
H        0.6435555903    0.2202057428    4.3848023805
H        3.7315616846   -2.2417002781    2.5984872225
H        3.8706087425   -2.0242148742    0.1348909374
15   

H        1.9917978016   -0.9392947222   -1.1330649160
C        1.9428091047   -1.0198697435   -0.0503764164
C        2.9616872124   -1.6704029954    0.6501079154
C        2.8991547410   -1.7770409316    2.0443380090
C        1.8214304325   -1.2257578136    2.7626953359
C        0.7944334848   -0.5812704043    2.0399380583
C        0.8580599756   -0.4798272927    0.6450006908
H        0.0601729406    0.0153263130    0.0980750166
H       -0.0754952676   -0.1674585241    2.5406468911
C        1.7842871622   -1.3319355372    4.2312349782
O        2.4463606446   -2.1623385220    4.7902618717
O        1.0071228433   -0.4880721497    4.9361936299
H        0.5258446077    0.1308077647    4.3713537733
H        3.6984623559   -2.2865954604    2.5789397223
H        3.8049752147   -2.0954976981    0.1129562887
