
  -OEChem-11102116593D

 37 38  0     0  0  0  0  0  0999 V2000
   -0.4633   -0.0097    2.6643 C   0  0  0  0  0  0  0  0  0  0  0  0
    0.7281   -0.5516    1.9494 C   0  0  0  0  0  0  0  0  0  0  0  0
    1.7639   -1.1452    2.6708 C   0  0  0  0  0  0  0  0  0  0  0  0
    2.8783   -1.6520    2.0022 C   0  0  0  0  0  0  0  0  0  0  0  0
    3.8891   -2.2317    2.7057 O   0  0  0  0  0  0  0  0  0  0  0  0
    5.1874   -1.8864    2.3700 C   0  0  0  0  0  0  0  0  0  0  0  0
    6.1623   -2.8761    2.2442 C   0  0  0  0  0  0  0  0  0  0  0  0
    7.4699   -2.5280    1.9058 C   0  0  0  0  0  0  0  0  0  0  0  0
    8.4865   -3.5599    1.7752 C   0  0  0  0  0  0  0  0  0  0  0  0
    7.9962   -4.8069    2.0155 O   0  0  0  0  0  0  0  0  0  0  0  0
    9.6707   -3.3653    1.4821 O   0  0  0  0  0  0  0  0  0  0  0  0
    7.8028   -1.1902    1.6933 C   0  0  0  0  0  0  0  0  0  0  0  0
    6.8279   -0.2005    1.8192 C   0  0  0  0  0  0  0  0  0  0  0  0
    7.1527    1.1049    1.6116 O   0  0  0  0  0  0  0  0  0  0  0  0
    6.1074    2.0651    1.7567 C   0  0  0  0  0  0  0  0  0  0  0  0
    5.5202   -0.5486    2.1575 C   0  0  0  0  0  0  0  0  0  0  0  0
    2.9568   -1.5651    0.6122 C   0  0  0  0  0  0  0  0  0  0  0  0
    1.9210   -0.9714   -0.1091 C   0  0  0  0  0  0  0  0  0  0  0  0
    1.9981   -0.8862   -1.4654 O   0  0  0  0  0  0  0  0  0  0  0  0
    3.1657   -1.4239   -2.0844 C   0  0  0  0  0  0  0  0  0  0  0  0
    0.8067   -0.4646    0.5595 C   0  0  0  0  0  0  0  0  0  0  0  0
   -1.2278   -0.7867    2.7604 H   0  0  0  0  0  0  0  0  0  0  0  0
   -0.1914    0.3451    3.6640 H   0  0  0  0  0  0  0  0  0  0  0  0
   -0.8898    0.8418    2.1235 H   0  0  0  0  0  0  0  0  0  0  0  0
    1.7054   -1.2149    3.7543 H   0  0  0  0  0  0  0  0  0  0  0  0
    5.8981   -3.9178    2.4110 H   0  0  0  0  0  0  0  0  0  0  0  0
    8.6747   -5.5103    1.9307 H   0  0  0  0  0  0  0  0  0  0  0  0
    8.8209   -0.9139    1.4293 H   0  0  0  0  0  0  0  0  0  0  0  0
    6.5096    3.0585    1.5628 H   0  0  0  0  0  0  0  0  0  0  0  0
    5.7080    2.0038    2.7683 H   0  0  0  0  0  0  0  0  0  0  0  0
    5.3253    1.8347    1.0348 H   0  0  0  0  0  0  0  0  0  0  0  0
    4.7603    0.2225    2.2554 H   0  0  0  0  0  0  0  0  0  0  0  0
    3.8253   -1.9600    0.0910 H   0  0  0  0  0  0  0  0  0  0  0  0
    3.0904   -1.2866   -3.1622 H   0  0  0  0  0  0  0  0  0  0  0  0
    3.2425   -2.4820   -1.8370 H   0  0  0  0  0  0  0  0  0  0  0  0
    4.0349   -0.8900   -1.7028 H   0  0  0  0  0  0  0  0  0  0  0  0
    0.0010   -0.0018   -0.0052 H   0  0  0  0  0  0  0  0  0  0  0  0
  1  2  1  0  0  0  0
  2 21  1  0  0  0  0
  2  3  2  0  0  0  0
  3  4  1  0  0  0  0
  4  5  1  0  0  0  0
  5  6  1  0  0  0  0
  6 16  1  0  0  0  0
  6  7  2  0  0  0  0
  7  8  1  0  0  0  0
  8  9  1  0  0  0  0
  9 10  1  0  0  0  0
  9 11  2  0  0  0  0
  8 12  2  0  0  0  0
 12 13  1  0  0  0  0
 13 14  1  0  0  0  0
 14 15  1  0  0  0  0
 13 16  2  0  0  0  0
  4 17  2  0  0  0  0
 17 18  1  0  0  0  0
 18 19  1  0  0  0  0
 19 20  1  0  0  0  0
 18 21  2  0  0  0  0
  1 22  1  0  0  0  0
  1 23  1  0  0  0  0
  1 24  1  0  0  0  0
  3 25  1  0  0  0  0
  7 26  1  0  0  0  0
 10 27  1  0  0  0  0
 12 28  1  0  0  0  0
 15 29  1  0  0  0  0
 15 30  1  0  0  0  0
 15 31  1  0  0  0  0
 16 32  1  0  0  0  0
 17 33  1  0  0  0  0
 20 34  1  0  0  0  0
 20 35  1  0  0  0  0
 20 36  1  0  0  0  0
 21 37  1  0  0  0  0
M  END
$$$$
