15   

H        2.1271734336   -1.0610766565   -1.2209000704
C        1.9701879644   -1.0475310882   -0.1458256114
C        3.0517399980   -1.2090822034    0.7250415202
C        2.8496035073   -1.1921327329    2.1114852719
C        1.5750217493   -1.0076583079    2.6408529889
C        0.4892273535   -0.8565670734    1.7591057489
C        0.6850899897   -0.8725853020    0.3736021859
H       -0.1620526314   -0.7512166741   -0.2955417469
H       -0.5139387447   -0.7261742849    2.1592543483
C        1.3363139185   -1.0078945632    4.1002347776
O        0.2532049108   -1.1124393342    4.6203504509
O        2.4619672952   -0.8943775370    4.8444943854
H        2.1477984399   -0.9107023637    5.7603536831
H        3.7100954337   -1.3264418154    2.7621011039
H        4.0522035617   -1.3500580104    0.3259820682
15   

H        2.1246471465   -1.0335689339   -1.2187905311
C        1.9683864421   -1.0309935939   -0.1435298172
C        3.0460703529   -1.2339601471    0.7240858418
C        2.8439185366   -1.2315988433    2.1105081007
C        1.5758451323   -1.0141948099    2.6412102956
C        0.4920431144   -0.8312819166    1.7648196768
C        0.6874088122   -0.8324322212    0.3789791724
H       -0.1568541055   -0.6835936372   -0.2882415149
H       -0.5072725971   -0.6894840120    2.1703958551
C        1.3412519635   -1.0533571554    4.1018528964
O        0.3073808204   -1.3862309155    4.6242305881
O        2.4261684001   -0.7148914905    4.8376098690
H        2.1290565130   -0.7916504286    5.7560138288
H        3.6941522001   -1.4007098901    2.7666546058
H        4.0421658838   -1.3970852512    0.3225687262
15   

H        2.1177427814   -1.0081108303   -1.2164901450
C        1.9639216566   -1.0165910092   -0.1409080657
C        3.0381699501   -1.2616049223    0.7207711608
C        2.8382667866   -1.2736982318    2.1073376471
C        1.5785392440   -1.0245961847    2.6418248852
C        0.4961125583   -0.8062940114    1.7737736155
C        0.6889136911   -0.7926186068    0.3874299298
H       -0.1526157161   -0.6144565151   -0.2760296680
H       -0.4981076955   -0.6504706276    2.1861043212
C        1.3535862452   -1.0994281784    4.1052591957
O        0.4186322885   -1.6454844608    4.6319319426
O        2.3541261446   -0.5472718176    4.8298362978
H        2.0881812089   -0.6791687270    5.7514201348
H        3.6787827410   -1.4750813807    2.7669421845
H        4.0284888428   -1.4467077603    0.3145409631
15   

H        2.1067584277   -0.9837343995   -1.2155327828
C        1.9581487177   -1.0062315074   -0.1394203677
C        3.0296468111   -1.2973337133    0.7117965318
C        2.8360211088   -1.3272371152    2.0988945858
C        1.5870224546   -1.0499659896    2.6422061447
C        0.5058384601   -0.7862548578    1.7866921903
C        0.6923812926   -0.7543641621    0.3996200664
H       -0.1466354836   -0.5407641822   -0.2565029425
H       -0.4808954372   -0.6098529163    2.2079204473
C        1.3771912808   -1.1498826846    4.1105338262
O        0.5893811345   -1.8830960933    4.6473983084
O        2.2370438795   -0.3837958080    4.8190274654
H        2.0116711689   -0.5558364900    5.7446700098
H        3.6699108682   -1.5622606719    2.7556352879
H        4.0120813420   -1.5040916302    0.2969649420
15   

H        2.0896328635   -0.9507956576   -1.2157593270
C        1.9514567614   -0.9933190747   -0.1388610053
C        3.0217368122   -1.3390513126    0.6934669634
C        2.8415329041   -1.3943200049    2.0815640886
C        1.6068408550   -1.0943136274    2.6431597313
C        0.5275820284   -0.7671163836    1.8080127644
C        0.7008674148   -0.7096787898    0.4199557417
H       -0.1361627279   -0.4497528783   -0.2218168886
H       -0.4463823498   -0.5603771676    2.2442923684
C        1.4183718898   -1.2028539988    4.1181781231
O        0.8236936331   -2.0837055336    4.6786978889
O        2.0538615767   -0.2230733927    4.7977093211
H        1.8716991160   -0.4128473555    5.7292567406
H        3.6732220576   -1.6688505370    2.7254206582
H        3.9926305984   -1.5674590077    0.2631025818
15   

H        2.0780869394   -0.9098246221   -1.2148585910
C        1.9525835723   -0.9734705351   -0.1374504962
C        3.0178275972   -1.3854871346    0.6707002911
C        2.8537545594   -1.4680159714    2.0594546257
C        1.6377601395   -1.1415041076    2.6452017903
C        0.5679591777   -0.7298468113    1.8353318096
C        0.7247767477   -0.6452631080    0.4467129343
H       -0.1065117873   -0.3263707894   -0.1756232344
H       -0.3858864983   -0.4777535916    2.2914383547
C        1.4730089987   -1.2405544486    4.1258747246
O        1.1012532053   -2.2147593928    4.7218263265
O        1.7928654558   -0.0917307665    4.7602208797
H        1.6470284429   -0.2803553467    5.6983166239
H        3.6824125225   -1.7907055127    2.6845548135
H        3.9726394347   -1.6427916903    0.2210765908
15   

H        2.0619297329   -0.8790508594   -1.2142885803
C        1.9514686264   -0.9557148878   -0.1360820346
C        3.0114371544   -1.4250714506    0.6471003499
C        2.8664447572   -1.5247666222    2.0368281587
C        1.6710777304   -1.1693990617    2.6487218174
C        0.6126021018   -0.6836228393    1.8642053057
C        0.7500730604   -0.5820571642    0.4747112121
H       -0.0749034276   -0.2118206512   -0.1272490824
H       -0.3175972935   -0.3865721102    2.3416215730
C        1.5383119488   -1.2544280516    4.1318157707
O        1.4097146879   -2.2666544531    4.7662480239
O        1.5123158231   -0.0369482161    4.7172124744
H        1.4074590059   -0.2213756709    5.6616495506
H        3.6920748544   -1.8895822210    2.6426979940
H        3.9478265709   -1.7126188133    0.1774795239
15   

H        2.0487282696   -0.8846209875   -1.2172488350
C        1.9501732695   -0.9588595398   -0.1377204292
C        3.0022849740   -1.4686812213    0.6303329591
C        2.8726607065   -1.5653425127    2.0217252364
C        1.6979208442   -1.1710126480    2.6518016138
C        0.6503153469   -0.6382450812    1.8810807868
C        0.7728986259   -0.5398080049    0.4900045960
H       -0.0447273156   -0.1354380013   -0.0998981237
H       -0.2602930658   -0.3018327239    2.3702923744
C        1.5964290045   -1.2427548451    4.1339544843
O        1.7085418184   -2.2410864406    4.7950790157
O        1.2701602471   -0.0543634790    4.6902038797
H        1.2141406631   -0.2364359826    5.6393598648
H        3.6927049693   -1.9612302387    2.6159931723
H        3.9210358655   -1.7898441883    0.1478198811
15   

H        2.0333482818   -0.9131390642   -1.2227798272
C        1.9445723732   -0.9746804925   -0.1416052218
C        2.9880040815   -1.5117230848    0.6193109052
C        2.8713850995   -1.5919213787    2.0127836059
C        1.7174240984   -1.1528007744    2.6543384806
C        0.6776828956   -0.5944708421    1.8881690106
C        0.7885133591   -0.5127315638    0.4950173471
H       -0.0224188997   -0.0880474368   -0.0898368217
H       -0.2191288420   -0.2253023843    2.3794638068
C        1.6441545613   -1.2154775829    4.1344176728
O        1.9849076384   -2.1537229375    4.8074671940
O        1.0718882625   -0.1194426653    4.6837208800
H        1.0707540319   -0.2971413478    5.6354693747
H        3.6854929179   -2.0098006718    2.6006348131
H        3.8902878437   -1.8671372204    0.1297716156
15   

H        2.0177215867   -0.9530379022   -1.2296519618
C        1.9381292043   -0.9963327920   -0.1468786523
C        2.9725888175   -1.5530639346    0.6115626715
C        2.8683765349   -1.6096800419    2.0070876944
C        1.7361895746   -1.1234446828    2.6558132027
C        0.7023974154   -0.5507010394    1.8890975153
C        0.8022463776   -0.4928412752    0.4939289414
H       -0.0027074681   -0.0551376526   -0.0896008145
H       -0.1835721299   -0.1515369527    2.3766157751
C        1.6838699788   -1.1792633719    4.1339537702
O        2.2303402313   -2.0124054923    4.8120087637
O        0.9059807118   -0.2185022402    4.6851740513
H        0.9568353046   -0.3830350603    5.6380232578
H        3.6777040527   -2.0441232313    2.5899185327
H        3.8587784246   -1.9425878740    0.1185777100
15   

H        1.9967624428   -0.9985485085   -1.2355066230
C        1.9271956142   -1.0218992063   -0.1514282441
C        2.9532646014   -1.5945606085    0.6058808621
C        2.8626774277   -1.6251127168    2.0031200482
C        1.7537231703   -1.0925346466    2.6572694761
C        0.7245637205   -0.5100192604    1.8889143462
C        0.8119454188   -0.4783028505    0.4920857347
H        0.0122843461   -0.0302796190   -0.0909040020
H       -0.1498622847   -0.0810747512    2.3718315618
C        1.7167859944   -1.1395533839    4.1348693982
O        2.4373567390   -1.8226228019    4.8195694351
O        0.7649344966   -0.3497034040    4.6851521214
H        0.8587861883   -0.4876254087    5.6390218094
H        3.6683853197   -2.0734524043    2.5805920350
H        3.8229864390   -2.0170558230    0.1107122715
15   

H        1.9716838222   -1.0475018225   -1.2388639960
C        1.9132133699   -1.0499014639   -0.1538816189
C        2.9316319804   -1.6363231557    0.6029275414
C        2.8559176633   -1.6392787990    2.0013721641
C        1.7711758701   -1.0614683951    2.6583320889
C        0.7462428432   -0.4710201555    1.8892632694
C        0.8193502675   -0.4666598865    0.4912754773
H        0.0247347216   -0.0093774213   -0.0914311587
H       -0.1134979858   -0.0118416256    2.3706635478
C        1.7452535820   -1.0947464362    4.1362315885
O        2.6010901807   -1.5895811598    4.8276185173
O        0.6531705520   -0.5093032266    4.6816360808
H        0.7779856538   -0.6089903995    5.6367401893
H        3.6566943139   -2.0997823992    2.5761517961
H        3.7841533916   -2.0910886280    0.1064277920
15   

H        1.9428081328   -1.0963258149   -1.2386207138
C        1.8962407359   -1.0779958519   -0.1532146949
C        2.9074102182   -1.6776606426    0.6032335726
C        2.8472829559   -1.6530115717    2.0022310415
C        1.7877701653   -1.0308317694    2.6592356365
C        0.7669192463   -0.4332578250    1.8913606143
C        0.8243407154   -0.4558365578    0.4928025405
H        0.0346408139    0.0102402786   -0.0896115119
H       -0.0752435787    0.0541572088    2.3761405867
C        1.7680236527   -1.0466950957    4.1378279895
O        2.7114770644   -1.3258307833    4.8353945750
O        0.5776499797   -0.6891212230    4.6743415579
H        0.7186321452   -0.7416274116    5.6309319265
H        3.6406252403   -2.1237622809    2.5789886693
H        3.7419411251   -2.1639321838    0.1060330388
15   

H        1.9153637034   -1.1385420259   -1.2355604114
C        1.8803411303   -1.1010627390   -0.1502143111
C        2.8824904220   -1.7163503507    0.6063618031
C        2.8371716160   -1.6662333475    2.0052864486
C        1.8045831785   -0.9994947031    2.6597614547
C        0.7894769156   -0.3928863192    1.8941244598
C        0.8314066729   -0.4399938577    0.4956125052
H        0.0476210486    0.0360733140   -0.0866952084
H       -0.0337948330    0.1199056266    2.3852620209
C        1.7840533419   -0.9976994261    4.1397371598
O        2.7616547916   -1.0494982360    4.8426783265
O        0.5419975539   -0.8781529850    4.6641640265
H        0.6825613898   -0.8801052069    5.6221916061
H        3.6205535472   -2.1476981421    2.5866194845
H        3.6978776871   -2.2341901240    0.1092897111
15   

H        1.8897879486   -1.1733120814   -1.2310666480
C        1.8653330620   -1.1182846780   -0.1461791049
C        2.8555594222   -1.7517524008    0.6116652893
C        2.8236111673   -1.6785019759    2.0100256110
C        1.8194261163   -0.9679417384    2.6602269800
C        0.8133154226   -0.3486623600    1.8959991516
C        0.8408637272   -0.4178549635    0.4980400127
H        0.0649297352    0.0702574277   -0.0847934673
H        0.0095135073    0.1890684960    2.3926632458
C        1.7934632355   -0.9448832003    4.1430370010
O        2.7502839752   -0.7666230362    4.8516483970
O        0.5468199206   -1.0710292867    4.6534122532
H        0.6708035969   -1.0219757998    5.6123831121
H        3.5954064469   -2.1730652441    2.5954339287
H        3.6506067422   -2.3015119810    0.1159354492
15   

H        1.8737395052   -1.2017559734   -1.2273502047
C        1.8548441537   -1.1316263694   -0.1432234439
C        2.8264987394   -1.7872612872    0.6201856242
C        2.8015836751   -1.6941567534    2.0176222523
C        1.8244835839   -0.9416422295    2.6591073548
C        0.8359082664   -0.3018936869    1.8917939563
C        0.8555568511   -0.3900063610    0.4947758567
H        0.0933596913    0.1148178109   -0.0919272603
H        0.0524907160    0.2650281457    2.3883475912
C        1.7910699962   -0.8900048866    4.1451899715
O        2.6770102737   -0.4859195492    4.8509845332
O        0.5974218944   -1.2735744321    4.6513691475
H        0.6958871431   -1.1756713784    5.6094428719
H        3.5577832620   -2.2057508558    2.6082047808
H        3.6011896176   -2.3695058746    0.1293567246
15   

H        1.8759950045   -1.2160229745   -1.2250216586
C        1.8528330732   -1.1344738075   -0.1417757752
C        2.7940658590   -1.8190164371    0.6345525927
C        2.7635605273   -1.7112254378    2.0308891714
C        1.8088804705   -0.9196584023    2.6566764989
C        0.8546000968   -0.2450479899    1.8781746349
C        0.8795047382   -0.3474874032    0.4821826568
H        0.1425644164    0.1822980609   -0.1146957234
H        0.0943208737    0.3599509629    2.3653995511
C        1.7699864762   -0.8345619914    4.1451889787
O        2.5399579867   -0.2183024690    4.8314923067
O        0.7111774650   -1.4888592231    4.6709654255
H        0.7857028128   -1.3481898555    5.6257575131
H        3.4961617010   -2.2446383329    2.6313889141
H        3.5494043016   -2.4346844260    0.1544806086
15   

H        1.9106463974   -1.2132797649   -1.2245240885
C        1.8684753628   -1.1259018129   -0.1423056276
C        2.7633788615   -1.8466282508    0.6560121882
C        2.7082077333   -1.7317931572    2.0510529156
C        1.7676188039   -0.9061614372    2.6526979286
C        0.8706339187   -0.1813078011    1.8528038368
C        0.9201930623   -0.2911094365    0.4579934497
H        0.2238367468    0.2723219819   -0.1565536753
H        0.1363160153    0.4686378240    2.3215827265
C        1.7235761227   -0.7864501195    4.1403386036
O        2.3327034541    0.0170083868    4.7929140153
O        0.9060185360   -1.6989709158    4.7090252042
H        0.9623968281   -1.5211182079    5.6587942267
H        3.4062957003   -2.2911159259    2.6686158985
H        3.5024427583   -2.4949348162    0.1939343765
15   

H        1.9514632892   -1.2012006196   -1.2237351252
C        1.8846890203   -1.1143223614   -0.1427151270
C        2.7255963030   -1.8757494341    0.6763720354
C        2.6387926198   -1.7617487095    2.0698606993
C        1.7112838138   -0.9050314319    2.6491887415
C        0.8813299701   -0.1260160241    1.8284331754
C        0.9626077006   -0.2353241512    0.4350650058
H        0.3135574617    0.3652798395   -0.1958562918
H        0.1751509489    0.5660329814    2.2801708989
C        1.6627618949   -0.7599451383    4.1322855712
O        2.0749866191    0.1840223909    4.7509295601
O        1.1552955720   -1.8515540722    4.7458389148
H        1.1934410194   -1.6420624045    5.6901037495
H        3.2972826673   -2.3501698631    2.7037191594
H        3.4482946700   -2.5539637824    0.2316803600
15   

H        1.9884388057   -1.1981660966   -1.2223627387
C        1.8991897973   -1.1130833507   -0.1428237465
C        2.6940577938   -1.9055250051    0.6924247282
C        2.5786775198   -1.7936236373    2.0840394834
C        1.6632464380   -0.9118247996    2.6466060274
C        0.8864807070   -0.0964134267    1.8086646579
C        0.9964012326   -0.2033859884    0.4171695409
H        0.3858382819    0.4242430770   -0.2257660298
H        0.1995387982    0.6233043339    2.2471983906
C        1.5962172013   -0.7529411735    4.1231769655
O        1.7812278409    0.2768966197    4.7161987547
O        1.3883246756   -1.9219388631    4.7700339384
H        1.3885835073   -1.6850664353    5.7087012705
H        3.2045982588   -2.4055514336    2.7287752092
H        3.4041943558   -2.6057710299    0.2618747770
15   

H        2.0149322397   -1.1944351745   -1.2224247395
C        1.9110679834   -1.1123783097   -0.1439589078
C        2.6681615627   -1.9321747814    0.6994125406
C        2.5343907127   -1.8244161650    2.0897965145
C        1.6372851376   -0.9181310888    2.6452160037
C        0.8985798538   -0.0768993311    1.7970061693
C        1.0272179200   -0.1795069857    0.4069586793
H        0.4454687847    0.4694574158   -0.2415050927
H        0.2252789126    0.6605289932    2.2278620151
C        1.5411137294   -0.7595713251    4.1160844188
O        1.4896788121    0.2955801061    4.6937603843
O        1.5886951189   -1.9344698366    4.7856501286
H        1.5334802633   -1.6844596353    5.7193987512
H        3.1353323118   -2.4599821836    2.7355715672
H        3.3639674152   -2.6510261572    0.2761815608
15   

H        2.0401974821   -1.1866160199   -1.2236654757
C        1.9256947527   -1.1083632017   -0.1459942525
C        2.6489179562   -1.9537230302    0.7011597563
C        2.5017324774   -1.8517468180    2.0907549812
C        1.6270710150   -0.9213588956    2.6441673895
C        0.9177717486   -0.0597303816    1.7893952819
C        1.0602970591   -0.1566427272    0.4005045285
H        0.5019785553    0.5104162485   -0.2502097073
H        0.2537900566    0.6897963383    2.2143289038
C        1.4956788248   -0.7734899047    4.1107672385
O        1.2113706235    0.2520767369    4.6764130352
O        1.7686204952   -1.9065741642    4.7996532192
H        1.6502522920   -1.6593943433    5.7283751081
H        3.0806717997   -2.5125276451    2.7312407542
H        3.3291007406   -2.6893795181    0.2814062406
15   

H        2.0648550416   -1.1740149763   -1.2244974789
C        1.9406970464   -1.1009765456   -0.1475280302
C        2.6308868396   -1.9717979329    0.7007474287
C        2.4713770199   -1.8775965807    2.0896518253
C        1.6211151905   -0.9241232014    2.6435138155
C        0.9377968904   -0.0436199746    1.7849997261
C        1.0931467188   -0.1330591168    0.3971575272
H        0.5565647133    0.5511420539   -0.2540590829
H        0.2815479073    0.7154939827    2.2051742999
C        1.4546560578   -0.7934231178    4.1070663019
O        0.9511230189    0.1524037904    4.6606374231
O        1.9392611073   -1.8416844074    4.8143217069
H        1.7607733712   -1.6121128813    5.7380131414
H        3.0265194896   -2.5652938166    2.7226412387
H        3.2946106789   -2.7230502656    0.2822494417
15   

H        2.1248478945   -1.0886098882   -1.2217068563
C        1.9689205058   -1.0630880462   -0.1466950729
C        3.0551203760   -1.1833804234    0.7247592572
C        2.8547364967   -1.1505359610    2.1112145931
C        1.5758198306   -0.9981885517    2.6410089043
C        0.4868535394   -0.8776673759    1.7576335757
C        0.6811191394   -0.9097914475    0.3722463126
H       -0.1692853628   -0.8155216675   -0.2971323535
H       -0.5184873269   -0.7580304064    2.1557491165
C        1.3386134267   -0.9604966406    4.0999134626
O        0.2563915372   -0.8311031359    4.6169866066
O        2.4596394728   -1.0856136987    4.8494203472
H        2.1436198088   -1.0425287488    5.7637993705
H        3.7224387069   -1.2469562045    2.7588657555
H        4.0585607622   -1.3027878183    0.3261256653
