15   

H        2.1271730554   -1.0610755744   -1.2209014181
C        1.9701896072   -1.0475291071   -0.1458266758
C        3.0517428760   -1.2090818270    0.7250384988
C        2.8496089340   -1.1921315220    2.1114825651
C        1.5750277870   -1.0076546219    2.6408534493
C        0.4892325514   -0.8565615041    1.7591072150
C        0.6850929617   -0.8725806672    0.3736033507
H       -0.1620506041   -0.7512108663   -0.2955391784
H       -0.5139330254   -0.7261668485    2.1592565686
C        1.3363210858   -1.0078906867    4.1002309048
O        0.2532050539   -1.1124340541    4.6203452440
O        2.4619734579   -0.8943814331    4.8444932926
H        2.1478007511   -0.9106857475    5.7603516744
H        3.7101016859   -1.3264421529    2.7620970159
H        4.0522054273   -1.3500597539    0.3259772591
15   

H        2.1246495664   -1.0335584015   -1.2187924374
C        1.9683908753   -1.0309823489   -0.1435314325
C        3.0460755316   -1.2339524172    0.7240822844
C        2.8439259868   -1.2315912278    2.1105048385
C        1.5758537613   -1.0141836917    2.6412106212
C        0.4920515168   -0.8312664965    1.7648206984
C        0.6874149504   -0.8324169650    0.3789798882
H       -0.1568487589   -0.6835760341   -0.2882392831
H       -0.5072636277   -0.6894663686    2.1703975585
C        1.3412581693   -1.0533494998    4.1018494937
O        0.3073782575   -1.3862224383    4.6242210238
O        2.4261758981   -0.7149028149    4.8376133120
H        2.1290457724   -0.7916188861    5.7560149792
H        3.6941599727   -1.4007060471    2.7666499876
H        4.0421698182   -1.3970808621    0.3225634441
15   

H        2.1177449295   -1.0080960093   -1.2164917864
C        1.9639255318   -1.0165761018   -0.1409094613
C        3.0381742128   -1.2615942899    0.7207678677
C        2.8382729610   -1.2736887314    2.1073345668
C        1.5785464729   -1.0245832249    2.6418253198
C        0.4961199593   -0.8062761700    1.7737746533
C        0.6889192413   -0.7925999738    0.3874307211
H       -0.1526107002   -0.6144351906   -0.2760274793
H       -0.4980997721   -0.6504511752    2.1861060400
C        1.3535898644   -1.0994205047    4.1052576715
O        0.4186272776   -1.6454773707    4.6319184925
O        2.3541362851   -0.5472898442    4.8298454169
H        2.0881485272   -0.6791243270    5.7514258265
H        3.6787888690   -1.4750766125    2.7669377705
H        4.0284918256   -1.4467004601    0.3145360721
15   

H        2.1067605575   -0.9837236948   -1.2155332264
C        1.9581514247   -1.0062204183   -0.1394207245
C        3.0296494051   -1.2973249900    0.7117954541
C        2.8360243652   -1.3272288295    2.0988935466
C        1.5870257975   -1.0499551465    2.6422064415
C        0.5058422133   -0.7862417216    1.7866925436
C        0.6923847331   -0.7543508723    0.3996203731
H       -0.1466320021   -0.5407497796   -0.2565023291
H       -0.4808916546   -0.6098393771    2.2079206876
C        1.3771931461   -1.1498765936    4.1105319093
O        0.5893773061   -1.8830917488    4.6473898020
O        2.2370599593   -0.3838117915    4.8190324214
H        2.0116244997   -0.5557874499    5.7446717704
H        3.6699136724   -1.5622554283    2.7556338294
H        4.0120832385   -1.5040851108    0.2969633102
15   

H        2.0896331381   -0.9507903410   -1.2157595503
C        1.9514577765   -0.9933122770   -0.1388610754
C        3.0217381186   -1.3390446127    0.6934664467
C        2.8415350846   -1.3943120820    2.0815637010
C        1.6068433651   -1.0943036303    2.6431602318
C        0.5275842632   -0.7671067556    1.8080133808
C        0.7008689812   -0.7096705875    0.4199562041
H       -0.1361614600   -0.4497452803   -0.2218162860
H       -0.4463801652   -0.5603676378    2.2442929005
C        1.4183744819   -1.2028470139    4.1181755102
O        0.8236908824   -2.0837035743    4.6786892923
O        2.0538799153   -0.2230816914    4.7977142094
H        1.8716597625   -0.4128218883    5.7292572442
H        3.6732241433   -1.6688435018    2.7254200932
H        3.9926313572   -1.5674538503    0.2631016474
15   

H        2.0780868603   -0.9098247238   -1.2148585948
C        1.9525835168   -0.9734706091   -0.1374504963
C        3.0178275679   -1.3854871629    0.6707002842
C        2.8537545594   -1.4680159714    2.0594546257
C        1.6377601395   -1.1415041076    2.6452017903
C        0.5679591493   -0.7298468624    1.8353318149
C        0.7247766927   -0.6452631950    0.4467129382
H       -0.1065118631   -0.3263709198   -0.1756232295
H       -0.3858865309   -0.4777536500    2.2914383567
C        1.4730089987   -1.2405544486    4.1258747246
O        1.1012532053   -2.2147593928    4.7218263265
O        1.7928660596   -0.0917309647    4.7602209318
H        1.6470276956   -0.2803551052    5.6983165544
H        3.6824125373   -1.7907054711    2.6845548163
H        3.9726394031   -1.6427917010    0.2210765697
15   

H        2.0619300048   -0.8790495114   -1.2142884255
C        1.9514688759   -0.9557138345   -0.1360819027
C        3.0114372394   -1.4250709786    0.6471003791
C        2.8664447572   -1.5247666222    2.0368281587
C        1.6710777304   -1.1693990617    2.6487218174
C        0.6126023886   -0.6836219974    1.8642054574
C        0.7500734138   -0.5820558894    0.4747114144
H       -0.0749029646   -0.2118188487   -0.1272487068
H       -0.3175967612   -0.3865709905    2.3416221125
C        1.5383119488   -1.2544280516    4.1318157707
O        1.4097146879   -2.2666544531    4.7662480239
O        1.5123008100   -0.0369476067    4.7172106781
H        1.4075073156   -0.2213765811    5.6616544796
H        3.6920747495   -1.8895828727    2.6426977152
H        3.9478265461   -1.7126184993    0.1774794307
15   

H        2.0487281920   -0.8846211661   -1.2172489053
C        1.9501732433   -0.9588596533   -0.1377204901
C        3.0022849799   -1.4686812100    0.6303329452
C        2.8726607065   -1.5653425127    2.0217252364
C        1.6979208442   -1.1710126480    2.6518016138
C        0.6503152068   -0.6382454475    1.8810806496
C        0.7728984940   -0.5398083592    0.4900044762
H       -0.0447276314   -0.1354386550   -0.0998981961
H       -0.2602933621   -0.3018335700    2.3702923974
C        1.5964290045   -1.2427548451    4.1339544843
O        1.7085418184   -2.2410864406    4.7950790157
O        1.2701425976   -0.0543671987    4.6902017718
H        1.2142088159   -0.2364196559    5.6393666489
H        3.6927049652   -1.9612305182    2.6159929639
H        3.9210358306   -1.7898442135    0.1478198120
15   

H        2.0333481806   -0.9131399532   -1.2227800114
C        1.9445723030   -0.9746811582   -0.1416053915
C        2.9880041149   -1.5117233023    0.6193108899
C        2.8713850995   -1.5919213787    2.0127836059
C        1.7174240984   -1.1528007744    2.6543384806
C        0.6776825262   -0.5944717868    1.8881686856
C        0.7885130421   -0.5127326928    0.4950170249
H       -0.0224195160   -0.0880492447   -0.0898372213
H       -0.2191297291   -0.2253041792    2.3794632662
C        1.6441545613   -1.2154775829    4.1344176728
O        1.9849076384   -2.1537229375    4.8074671940
O        1.0718748933   -0.1194488425    4.6837195286
H        1.0708128421   -0.2971126184    5.6354746104
H        3.6854929502   -2.0098006922    2.6006347367
H        3.8902879095   -1.8671374274    0.1297716512
15   

H        2.0177216030   -0.9530384773   -1.2296520916
C        1.9381292129   -0.9963332272   -0.1468787782
C        2.9725888885   -1.5530640559    0.6115626698
C        2.8683765349   -1.6096800419    2.0070876944
C        1.7361895746   -1.1234446828    2.6558132027
C        0.7023971399   -0.5507017326    1.8890972603
C        0.8022461755   -0.4928420755    0.4939286955
H       -0.0027079007   -0.0551389650   -0.0896011278
H       -0.1835728769   -0.1515383091    2.3766152414
C        1.6838699788   -1.1792633719    4.1339537702
O        2.2303402313   -2.0124054923    4.8120087637
O        0.9059726435   -0.2185083296    4.6851733966
H        0.9568716717   -0.3830069512    5.6380261269
H        3.6777040563   -2.0441232429    2.5899185118
H        3.8587785515   -1.9425879598    0.1185777800
15   

H        1.9967623845   -0.9985488319   -1.2355066748
C        1.9271955697   -1.0218994419   -0.1514282915
C        2.9532646147   -1.5945606668    0.6058808608
C        2.8626774277   -1.6251127168    2.0031200482
C        1.7537231703   -1.0925346466    2.6572694761
C        0.7245635704   -0.5100195904    1.8889142579
C        0.8119452675   -0.4783032692    0.4920856442
H        0.0122840547   -0.0302803299   -0.0909041244
H       -0.1498626489   -0.0810753835    2.3718313637
C        1.7167859944   -1.1395533839    4.1348693982
O        2.4373567390   -1.8226228019    4.8195694351
O        0.7649311614   -0.3497072555    4.6851519032
H        0.8588007262   -0.4876085464    5.6390228255
H        3.6683853204   -2.0734524028    2.5805920335
H        3.8229864796   -2.0170558563    0.1107122974
15   

H        1.9716838079   -1.0475018650   -1.2388639952
C        1.9132133610   -1.0499014938   -0.1538816182
C        2.9316319757   -1.6363231705    0.6029275429
C        2.8559176633   -1.6392787990    2.0013721641
C        1.7711758701   -1.0614683951    2.6583320889
C        0.7462428361   -0.4710201694    1.8892632657
C        0.8193502582   -0.4666599160    0.4912754731
H        0.0247347106   -0.0093774624   -0.0914311690
H       -0.1134979975   -0.0118416419    2.3706635390
C        1.7452535820   -1.0947464362    4.1362315885
O        2.6010901807   -1.5895811598    4.8276185173
O        0.6531705473   -0.5093032316    4.6816360767
H        0.7779856412   -0.6089904092    5.6367401846
H        3.6566943181   -2.0997823912    2.5761517967
H        3.7841533820   -2.0910886465    0.1064277910
15   

H        1.9428083044   -1.0963258067   -1.2386207521
C        1.8962408652   -1.0779958333   -0.1532147359
C        2.9074102469   -1.6776607167    0.6032335780
C        2.8472829559   -1.6530115717    2.0022310415
C        1.7877701653   -1.0308317694    2.6592356365
C        0.7669194409   -0.4332575485    1.8913605294
C        0.8243409602   -0.4558363115    0.4928024571
H        0.0346412131    0.0102407521   -0.0896116236
H       -0.0752432366    0.0541578522    2.3761403946
C        1.7680236527   -1.0466950957    4.1378279895
O        2.7114770644   -1.3258307833    4.8353945750
O        0.5776514780   -0.6891162838    4.6743416107
H        0.7186256430   -0.7416486258    5.6309317195
H        3.6406252492   -2.1237622561    2.5789886756
H        3.7419411358   -2.1639323286    0.1060330827
15   

H        1.9153640667   -1.1385419373   -1.2355605105
C        1.8803414138   -1.1010626522   -0.1502144126
C        2.8824905203   -1.7163504143    0.6063618038
C        2.8371716160   -1.6662333475    2.0052864486
C        1.8045831785   -0.9994947031    2.6597614547
C        0.7894773125   -0.3928857730    1.8941242508
C        0.8314071588   -0.4399933844    0.4956123053
H        0.0476218169    0.0360742062   -0.0866954476
H       -0.0337941329    0.1199069182    2.3852615811
C        1.7840533419   -0.9976994261    4.1397371598
O        2.7616547916   -1.0494982360    4.8426783265
O        0.5419984244   -0.8781428726    4.6641639015
H        0.6825569976   -0.8801509667    5.6221921310
H        3.6205535836   -2.1476980903    2.5866194712
H        3.6978777811   -2.2341902547    0.1092897696
15   

H        1.8897885599   -1.1733116849   -1.2310667831
C        1.8653335242   -1.1182843705   -0.1461792384
C        2.8555595934   -1.7517523665    0.6116652860
C        2.8236111673   -1.6785019759    2.0100256110
C        1.8194261163   -0.9679417384    2.6602269800
C        0.8133159970   -0.3486615795    1.8959988774
C        0.8408644541   -0.4178541866    0.4980397485
H        0.0649308589    0.0702587840   -0.0847937779
H        0.0095145200    0.1890701751    2.3926628014
C        1.7934632355   -0.9448832003    4.1430370010
O        2.7502839752   -0.7666230362    4.8516483970
O        0.5468180436   -1.0710146096    4.6534115573
H        0.6708105544   -1.0220410341    5.6123853444
H        3.5954065012   -2.1730652239    2.5954338571
H        3.6506069187   -2.3015119866    0.1159354974
15   

H        1.8737394883   -1.2017560285   -1.2273502490
C        1.8548441402   -1.1316264420   -0.1432234870
C        2.8264987002   -1.7872613562    0.6201856183
C        2.8015836751   -1.6941567534    2.0176222523
C        1.8244835839   -0.9416422295    2.6591073548
C        0.8359084370   -0.3018934693    1.8917938470
C        0.8555569633   -0.3900062454    0.4947757709
H        0.0933598897    0.1148181380   -0.0919272754
H        0.0524911783    0.2650287092    2.3883476688
C        1.7910699962   -0.8900048866    4.1451899715
O        2.6770102737   -0.4859195492    4.8509845332
O        0.5974157162   -1.2735575313    4.6513677047
H        0.6959096010   -1.1757381956    5.6094470233
H        3.5577835368   -2.2057506361    2.6082045914
H        3.6011896148   -2.3695058586    0.1293566775
15   

H        1.8759943451   -1.2160235229   -1.2250216022
C        1.8528325560   -1.1344742916   -0.1417757210
C        2.7940656238   -1.8190166175    0.6345525915
C        2.7635605273   -1.7112254378    2.0308891714
C        1.8088804705   -0.9196584023    2.6566764989
C        0.8545996747   -0.2450485107    1.8781747209
C        0.8795041015   -0.3474880779    0.4821827616
H        0.1425635033    0.1822971461   -0.1146954894
H        0.0943203858    0.3599501375    2.3653999875
C        1.7699864762   -0.8345619914    4.1451889787
O        2.5399579867   -0.2183024690    4.8314923067
O        0.7111690356   -1.4888468379    4.6709640168
H        0.7857293260   -1.3482305966    5.6257611962
H        3.4961621288   -2.2446379831    2.6313886733
H        3.5494041544   -2.4346844160    0.1544805039
15   

H        1.9106465767   -1.2132795707   -1.2245241022
C        1.8684754948   -1.1259016743   -0.1423056376
C        2.7633789231   -1.8466281909    0.6560121858
C        2.7082077333   -1.7317931572    2.0510529156
C        1.7676188039   -0.9061614372    2.6526979286
C        0.8706339972   -0.1813077082    1.8528038293
C        0.9201932051   -0.2911092833    0.4579934384
H        0.2238369495    0.2723221989   -0.1565536948
H        0.1363161171    0.4686379565    2.3215827018
C        1.7235761227   -0.7864501195    4.1403386036
O        2.3327034541    0.0170083868    4.7929140153
O        0.9060189617   -1.6989712673    4.7090252502
H        0.9623961427   -1.5211176184    5.6587941632
H        3.4062956548   -2.2911159697    2.6686159112
H        3.5024428240   -2.4949347602    0.1939343828
15   

H        1.9514607687   -1.2012024918   -1.2237354250
C        1.8846854459   -1.1143255079   -0.1427153909
C        2.7255928510   -1.8757526336    0.6763715808
C        2.6387882206   -1.7617532588    2.0698602660
C        1.7112776663   -0.9050374246    2.6491887030
C        0.8813241146   -0.1260216586    1.8284331103
C        0.9626030238   -0.2353285414    0.4350649002
H        0.3135531828    0.3652758678   -0.1958564077
H        0.1751449094    0.5660273028    2.2801705875
C        1.6627576143   -0.7599503163    4.1322825295
O        2.0749834754    0.1840236460    4.7509227253
O        1.1553113731   -1.8515653256    4.7458418831
H        1.1933967839   -1.6420437451    5.6901025250
H        3.2972787311   -2.3501738994    2.7037188031
H        3.4482923418   -2.5539657144    0.2316797987
15   

H        1.9884320860   -1.1981720338   -1.2223635724
C        1.8991829136   -1.1130901453   -0.1428245276
C        2.6940528290   -1.9055304609    0.6924233230
C        2.5786730363   -1.7936296870    2.0840381168
C        1.6632396550   -0.9118325715    2.6466059170
C        0.8864722530   -0.0964226892    1.8086645069
C        0.9963926956   -0.2033947974    0.4171693396
H        0.3858288021    0.4242336348   -0.2257659553
H        0.1995297849    0.6232946000    2.2471981240
C        1.5962129775   -0.7529458054    4.1231748595
O        1.7812220763    0.2768979128    4.7161909590
O        1.3883459013   -1.9219443666    4.7700387185
H        1.3885157729   -1.6850537757    5.7087014872
H        3.2045960182   -2.4055555883    2.7287735608
H        3.4041910116   -2.6057745756    0.2618729428
15   

H        2.0149215513   -1.1944442620   -1.2224271098
C        1.9110579204   -1.1123891151   -0.1439610882
C        2.6681555199   -1.9321833973    0.6994086737
C        2.5343863698   -1.8244260447    2.0897928548
C        1.6372779206   -0.9181442789    2.6452156359
C        0.8985684182   -0.0769154390    1.7970061551
C        1.0272051147   -0.1795216923    0.4069584362
H        0.4454532696    0.4694415469   -0.2415040700
H        0.2252660421    0.6605112560    2.2278625739
C        1.5411089085   -0.7595789055    4.1160822823
O        1.4896697931    0.2955813614    4.6937461185
O        1.5887156760   -1.9344695019    4.7856601481
H        1.5334252107   -1.6844558382    5.7194033690
H        3.1353320997   -2.4599893126    2.7355668250
H        3.3639638827   -2.6510315269    0.2761763136
15   

H        2.0401906194   -1.1866234257   -1.2236677175
C        1.9256881944   -1.1083724784   -0.1459963262
C        2.6489149198   -1.9537306160    0.7011561806
C        2.5017305012   -1.8517560583    2.0907516065
C        1.6270662862   -0.9213713044    2.6441669162
C        0.9177631722   -0.0597451867    1.7893951477
C        1.0602876511   -0.1566557635    0.4005042028
H        0.5019666186    0.5104022622   -0.2502088430
H        0.2537796117    0.6897796879    2.2143291638
C        1.4956755607   -0.7734985858    4.1107632085
O        1.2113619973    0.2520745689    4.6764041840
O        1.7686334412   -1.9065748191    4.7996560190
H        1.6502190083   -1.6594030646    5.7283741884
H        3.0806733277   -2.5125348676    2.7312363287
H        3.3291001558   -2.6893841036    0.2814013843
15   

H        2.0648548987   -1.1740144585   -1.2244986371
C        1.9406969715   -1.1009782387   -0.1475290332
C        2.6308888254   -1.9717995918    0.7007446894
C        2.4713793375   -1.8776009104    2.0896492677
C        1.6211153547   -0.9241296484    2.6435138879
C        0.9377949914   -0.0436268399    1.7850007077
C        1.0931447370   -0.1330635831    0.3971583563
H        0.5565611993    0.5511375685   -0.2540570131
H        0.2815444581    0.7154854795    2.2051758714
C        1.4546566499   -0.7934309211    4.1070616868
O        0.9511186087    0.1524007142    4.6606327138
O        1.9392676447   -1.8416878786    4.8143195457
H        1.7607604930   -1.6121245842    5.7380093156
H        3.0265236817   -2.5652979335    2.7226372980
H        3.2946141972   -2.7230497305    0.2822451948
15   

H        2.0869134545   -1.1573567319   -1.2238971816
C        1.9531978824   -1.0915836967   -0.1476030284
C        2.6109763087   -1.9883130822    0.6991181674
C        2.4389648236   -1.9040534453    2.0872114912
C        1.6135344168   -0.9298471498    2.6431869150
C        0.9544077817   -0.0303193287    1.7846256736
C        1.1225172236   -0.1098426131    0.3977283345
H        0.6071071737    0.5915444630   -0.2523109415
H        0.3061437132    0.7364525675    2.2033545099
C        1.4158270656   -0.8205743991    4.1043664813
O        0.7150869652    0.0001981621    4.6434598662
O        2.0995468330   -1.7382239484    4.8286323102
H        1.8698878623   -1.5386220849    5.7479960406
H        2.9660070373   -2.6178585432    2.7151962425
H        3.2580459296   -2.7535749349    0.2799109631
