15   

H        2.1271735320   -1.0610760486   -1.2209000650
C        1.9701880303   -1.0475306298   -0.1458256088
C        3.0517400242   -1.2090819821    0.7250415221
C        2.8496035073   -1.1921327329    2.1114852719
C        1.5750217493   -1.0076583079    2.6408529889
C        0.4892273869   -0.8565668357    1.7591057488
C        0.6850900554   -0.8725848427    0.3736021866
H       -0.1620525377   -0.7512160662   -0.2955417518
H       -0.5139387179   -0.7261740810    2.1592543425
C        1.3363139185   -1.0078945632    4.1002347776
O        0.2532049108   -1.1124393342    4.6203504509
O        2.4619675908   -0.8943809051    4.8444944673
H        2.1477972854   -0.9106900337    5.7603535468
H        3.7100954457   -1.3264420893    2.7621010341
H        4.0522035814   -1.3500578449    0.3259820736
15   

H        2.1246472471   -1.0335682024   -1.2187905189
C        1.9683865088   -1.0309930184   -0.1435298098
C        3.0460703678   -1.2339598679    0.7240858424
C        2.8439185366   -1.2315988433    2.1105081007
C        1.5758451323   -1.0141948099    2.6412102956
C        0.4920431468   -0.8312816471    1.7648196806
C        0.6874088777   -0.8324316761    0.3789791799
H       -0.1568540189   -0.6835929892   -0.2882415109
H       -0.5072725957   -0.6894838862    2.1703958214
C        1.3412519635   -1.0533571554    4.1018528964
O        0.3073808204   -1.3862309155    4.6242305881
O        2.4261704237   -0.7148981557    4.8376100181
H        2.1290477746   -0.7916213128    5.7560134798
H        3.6941522451   -1.4007104116    2.7666544311
H        4.0421658819   -1.3970851108    0.3225687410
15   

H        2.1177430295   -1.0081100735   -1.2164901292
C        1.9639218200   -1.0165904024   -0.1409080642
C        3.0381700248   -1.2616046171    0.7207711779
C        2.8382667866   -1.2736982318    2.1073376471
C        1.5785392440   -1.0245961847    2.6418248852
C        0.4961126077   -0.8062938037    1.7737735770
C        0.6889138312   -0.7926180783    0.3874299038
H       -0.1526155306   -0.6144559128   -0.2760297320
H       -0.4981077303   -0.6504706619    2.1861041521
C        1.3535862452   -1.0994281784    4.1052591957
O        0.4186322885   -1.6454844608    4.6319319426
O        2.3541312856   -0.5472810401    4.8298363803
H        2.0881575782   -0.6791243313    5.7514195764
H        3.6787827017   -1.4750819978    2.7669420960
H        4.0284889169   -1.4467076117    0.3145410487
15   

H        2.1067586362   -0.9837342637   -1.2155327966
C        1.9581488504   -1.0062313976   -0.1394203922
C        3.0296469011   -1.2973336134    0.7117965502
C        2.8360211088   -1.3272371152    2.0988945858
C        1.5870224546   -1.0499659896    2.6422061447
C        0.5058384407   -0.7862550680    1.7866921002
C        0.6923813605   -0.7543642546    0.3996199849
H       -0.1466353973   -0.5407644552   -0.2565031079
H       -0.4808956041   -0.6098535001    2.2079201407
C        1.3771912808   -1.1498826846    4.1105338262
O        0.5893811345   -1.8830960933    4.6473983084
O        2.2370530438   -0.3838059581    4.8190275103
H        2.0116332150   -0.5557917420    5.7446687697
H        3.6699107384   -1.5622608755    2.7556354539
H        4.0120814742   -1.5040915702    0.2969650791
15   

H        2.0896328707   -0.9507966767   -1.2157594286
C        1.9514567328   -0.9933198687   -0.1388611043
C        3.0217368526   -1.3390516028    0.6934669665
C        2.8415329041   -1.3943200049    2.0815640886
C        1.6068408550   -1.0943136274    2.6431597313
C        0.5275818623   -0.7671172416    1.8080125928
C        0.7008672666   -0.7096799338    0.4199555538
H       -0.1361629501   -0.4497545859   -0.2218172100
H       -0.4463827213   -0.5603785037    2.2442919319
C        1.4183718898   -1.2028539988    4.1181781231
O        0.8236936331   -2.0837055336    4.6786978889
O        2.0538715534   -0.2230800492    4.7977096870
H        1.8716651657   -0.4128234760    5.7292547295
H        3.6732220047   -1.6688501377    2.7254209485
H        3.9926307350   -1.5674591617    0.2631027281
15   

H        2.0780868227   -0.9098248945   -1.2148586152
C        1.9525834863   -0.9734707285   -0.1374505112
C        3.0178275576   -1.3854872044    0.6707002802
C        2.8537545594   -1.4680159714    2.0594546257
C        1.6377601395   -1.1415041076    2.6452017903
C        0.5679591286   -0.7298469380    1.8353318084
C        0.7247766543   -0.6452633356    0.4467129235
H       -0.1065119209   -0.3263711310   -0.1756232526
H       -0.3858865524   -0.4777537476    2.2914383631
C        1.4730089987   -1.2405544486    4.1258747246
O        1.1012532053   -2.2147593928    4.7218263265
O        1.7928659508   -0.0917309287    4.7602209253
H        1.6470279744   -0.2803551918    5.6983165852
H        3.6824125470   -1.7907054379    2.6845548203
H        3.9726394011   -1.6427917180    0.2210765707
15   

H        2.0619299823   -0.8790496794   -1.2142884401
C        1.9514688458   -0.9557139861   -0.1360819170
C        3.0114372312   -1.4250710531    0.6471003778
C        2.8664447572   -1.5247666222    2.0368281587
C        1.6710777304   -1.1693990617    2.6487218174
C        0.6126023234   -0.6836221793    1.8642054362
C        0.7500733546   -0.5820561090    0.4747113885
H       -0.0749030364   -0.2118191502   -0.1272487645
H       -0.3175968881   -0.3865712607    2.3416220102
C        1.5383119488   -1.2544280516    4.1318157707
O        1.4097146879   -2.2666544531    4.7662480239
O        1.5123050872   -0.0369477762    4.7172111911
H        1.4074983325   -0.2213764402    5.6616535840
H        3.6920747624   -1.8895827464    2.6426977800
H        3.9478265594   -1.7126185539    0.1774794602
15   

H        2.0487282505   -0.8846208520   -1.2172488456
C        1.9501732817   -0.9588594246   -0.1377204385
C        3.0022849874   -1.4686811156    0.6303329560
C        2.8726607065   -1.5653425127    2.0217252364
C        1.6979208442   -1.1710126480    2.6518016138
C        0.6503152710   -0.6382452525    1.8810807302
C        0.7728985685   -0.5398080667    0.4900045636
H       -0.0447274927   -0.1354382000   -0.0998980858
H       -0.2602932236   -0.3018332245    2.3702924877
C        1.5964290045   -1.2427548451    4.1339544843
O        1.7085418184   -2.2410864406    4.7950790157
O        1.2701475909   -0.0543661359    4.6902023545
H        1.2141955680   -0.2364228644    5.6393653390
H        3.6927049479   -1.9612305191    2.6159929930
H        3.9210358391   -1.7898441123    0.1478198208
15   

H        2.0333480864   -0.9131398837   -1.2227799707
C        1.9445722403   -0.9746810914   -0.1416053478
C        2.9880040637   -1.5117232914    0.6193108861
C        2.8713850995   -1.5919213787    2.0127836059
C        1.7174240984   -1.1528007744    2.6543384806
C        0.6776825882   -0.5944715941    1.8881687853
C        0.7885130460   -0.5127325108    0.4950171172
H       -0.0224194739   -0.0880489590   -0.0898371063
H       -0.2191295274   -0.2253037860    2.3794634493
C        1.6441545613   -1.2154775829    4.1344176728
O        1.9849076384   -2.1537229375    4.8074671940
O        1.0718786245   -0.1194471081    4.6837198909
H        1.0708010079   -0.2971184089    5.6354735531
H        3.6854929575   -2.0098006677    2.6006347475
H        3.8902878418   -1.8671374141    0.1297716171
15   

H        2.0177215591   -0.9530383937   -1.2296520607
C        1.9381291819   -0.9963331585   -0.1468787463
C        2.9725888591   -1.5530640344    0.6115626692
C        2.8683765349   -1.6096800419    2.0070876944
C        1.7361895746   -1.1234446828    2.6558132027
C        0.7023971805   -0.5507016090    1.8890973319
C        0.8022461851   -0.4928419453    0.4939287613
H       -0.0027078588   -0.0551387584   -0.0896010462
H       -0.1835727297   -0.1515380606    2.3766153977
C        1.6838699788   -1.1792633719    4.1339537702
O        2.2303402313   -2.0124054923    4.8120087637
O        0.9059748856   -0.2185066310    4.6851735712
H        0.9568641821   -0.3830127341    5.6380255321
H        3.6777040627   -2.0441232229    2.5899185191
H        3.8587785081   -1.9425879364    0.1185777535
15   

H        1.9967624139   -0.9985487383   -1.2355066636
C        1.9271955932   -1.0218993693   -0.1514282810
C        2.9532646167   -1.5945606468    0.6058808618
C        2.8626774277   -1.6251127168    2.0031200482
C        1.7537231703   -1.0925346466    2.6572694761
C        0.7245636202   -0.5100194890    1.8889142777
C        0.8119453264   -0.4783031330    0.4920856632
H        0.0122841676   -0.0302800932   -0.0909041023
H       -0.1498625472   -0.0810752096    2.3718314120
C        1.7167859944   -1.1395533839    4.1348693982
O        2.4373567390   -1.8226228019    4.8195694351
O        0.7649320771   -0.3497061940    4.6851519572
H        0.8587976935   -0.4876120507    5.6390226075
H        3.6683853193   -2.0734524074    2.5805920317
H        3.8229864712   -2.0170558512    0.1107122918
15   

H        1.9716837241   -1.0475019324   -1.2388639961
C        1.9132133030   -1.0499015421   -0.1538816174
C        2.9316319392   -1.6363231972    0.6029275373
C        2.8559176633   -1.6392787990    2.0013721641
C        1.7711758701   -1.0614683951    2.6583320889
C        0.7462428105   -0.4710202043    1.8892632757
C        0.8193502046   -0.4666599674    0.4912754839
H        0.0247346350   -0.0093775341   -0.0914311439
H       -0.1134980261   -0.0118416959    2.3706635604
C        1.7452535820   -1.0947464362    4.1362315885
O        2.6010901807   -1.5895811598    4.8276185173
O        0.6531705610   -0.5093032090    4.6816360786
H        0.7779856735   -0.6089903600    5.6367401864
H        3.6566943296   -2.0997823737    2.5761517946
H        3.7841533316   -2.0910886818    0.1064277709
15   

H        1.9428082383   -1.0963258260   -1.2386207449
C        1.8962408173   -1.0779958501   -0.1532147264
C        2.9074102403   -1.6776606895    0.6032335751
C        2.8472829559   -1.6530115717    2.0022310415
C        1.7877701653   -1.0308317694    2.6592356365
C        0.7669193884   -0.4332576239    1.8913605554
C        0.8243408802   -0.4558363929    0.4928024831
H        0.0346410808    0.0102406052   -0.0896115808
H       -0.0752433136    0.0541576941    2.3761404612
C        1.7680236527   -1.0466950957    4.1378279895
O        2.7114770644   -1.3258307833    4.8353945750
O        0.5776510808   -0.6891175958    4.6743415970
H        0.7186270408   -0.7416440836    5.6309317629
H        3.6406252548   -2.1237622493    2.5789886739
H        3.7419411529   -2.1639322542    0.1060330724
15   

H        1.9153639769   -1.1385418946   -1.2355604751
C        1.8803413417   -1.1010626351   -0.1502143775
C        2.8824904878   -1.7163503833    0.6063618031
C        2.8371716160   -1.6662333475    2.0052864486
C        1.8045831785   -0.9994947031    2.6597614547
C        0.7894772126   -0.3928859032    1.8941243171
C        0.8314070348   -0.4399934737    0.4956123714
H        0.0476216232    0.0360740255   -0.0866953613
H       -0.0337942983    0.1199065996    2.3852617246
C        1.7840533419   -0.9976994261    4.1397371598
O        2.7616547916   -1.0494982360    4.8426783265
O        0.5419981742   -0.8781456747    4.6641639235
H        0.6825578754   -0.8801415654    5.6221920136
H        3.6205535737   -2.1476981143    2.5866194662
H        3.6978777355   -2.2341902120    0.1092897388
15   

H        1.8897883305   -1.1733117989   -1.2310667338
C        1.8653333587   -1.1182844604   -0.1461791901
C        2.8555595312   -1.7517523670    0.6116652852
C        2.8236111673   -1.6785019759    2.0100256110
C        1.8194261163   -0.9679417384    2.6602269800
C        0.8133158328   -0.3486617892    1.8959989750
C        0.8408642206   -0.4178544082    0.4980398456
H        0.0649305082    0.0702584031   -0.0847936560
H        0.0095142622    0.1890697325    2.3926629802
C        1.7934632355   -0.9448832003    4.1430370010
O        2.7502839752   -0.7666230362    4.8516483970
O        0.5468185633   -1.0710187516    4.6534117453
H        0.6708091635   -1.0220279697    5.6123849049
H        3.5954064957   -2.1730652229    2.5954338688
H        3.6506068553   -2.3015119627    0.1159354678
15   

H        1.8737393064   -1.2017562156   -1.2273502178
C        1.8548440177   -1.1316265605   -0.1432234593
C        2.8264986457   -1.7872614045    0.6201856221
C        2.8015836751   -1.6941567534    2.0176222523
C        1.8244835839   -0.9416422295    2.6591073548
C        0.8359083493   -0.3018935808    1.8917938992
C        0.8555568252   -0.3900063976    0.4947758210
H        0.0933596883    0.1148178896   -0.0919272244
H        0.0524910372    0.2650285096    2.3883477065
C        1.7910699962   -0.8900048866    4.1451899715
O        2.6770102737   -0.4859195492    4.8509845332
O        0.5974174647   -1.2735623369    4.6513681042
H        0.6959052828   -1.1757252193    5.6094462346
H        3.5577835102   -2.2057506422    2.6082046261
H        3.6011895478   -2.3695059219    0.1293566794
15   

H        1.8759945372   -1.2160233649   -1.2250216199
C        1.8528326972   -1.1344741617   -0.1417757374
C        2.7940656883   -1.8190165690    0.6345525907
C        2.7635605273   -1.7112254378    2.0308891714
C        1.8088804705   -0.9196584023    2.6566764989
C        0.8545997704   -0.2450483934    1.8781746987
C        0.8795042603   -0.3474879133    0.4821827328
H        0.1425637256    0.1822973662   -0.1146955500
H        0.0943204782    0.3599503068    2.3653998790
C        1.7699864762   -0.8345619914    4.1451889787
O        2.5399579867   -0.2183024690    4.8314923067
O        0.7111713929   -1.4888503101    4.6709644111
H        0.7857243206   -1.3482228681    5.6257605186
H        3.4961620258   -2.2446380686    2.6313887293
H        3.5494041985   -2.4346844124    0.1544805243
15   

H        1.9106465634   -1.2132796290   -1.2245240994
C        1.8684754697   -1.1259017210   -0.1423056381
C        2.7633789226   -1.8466281990    0.6560121896
C        2.7082077333   -1.7317931572    2.0510529156
C        1.7676188039   -0.9061614372    2.6526979286
C        0.8706339447   -0.1813077751    1.8528038263
C        0.9201931403   -0.2911093703    0.4579934350
H        0.2238368473    0.2723220603   -0.1565537044
H        0.1363160295    0.4686378451    2.3215827042
C        1.7235761227   -0.7864501195    4.1403386036
O        2.3327034541    0.0170083868    4.7929140153
O        0.9060188818   -1.6989712016    4.7090252407
H        0.9623963724   -1.5211178139    5.6587941832
H        3.4062956748   -2.2911159422    2.6686159133
H        3.5024428430   -2.4949347477    0.1939343911
15   

H        1.9514642391   -1.2011999840   -1.2237351762
C        1.8846897392   -1.1143218371   -0.1427151848
C        2.7255966144   -1.8757492635    0.6763720511
C        2.6387926198   -1.7617487095    2.0698606993
C        1.7112838138   -0.9050314319    2.6491887415
C        0.8813306520   -0.1260153690    1.8284330563
C        0.9626086515   -0.2353233360    0.4350648805
H        0.3135588887    0.3652810653   -0.1958565162
H        0.1751519712    0.5660341167    2.2801705477
C        1.6627618949   -0.7599451383    4.1322855712
O        2.0749866191    0.1840223909    4.7509295601
O        1.1553064862   -1.8515589605    4.7458393461
H        1.1934027418   -1.6420462548    5.6901014948
H        3.2972822716   -2.3501700676    2.7037194333
H        3.4482949262   -2.5539637620    0.2316805109
15   

H        1.9884389232   -1.1981662993   -1.2223627632
C        1.8991898593   -1.1130834823   -0.1428237816
C        2.6940577995   -1.9055251208    0.6924247470
C        2.5786775198   -1.7936236373    2.0840394834
C        1.6632464380   -0.9118247996    2.6466060274
C        0.8864809410   -0.0964132479    1.8086645666
C        0.9964014463   -0.2033859368    0.4171694510
H        0.3858387011    0.4242432466   -0.2257661983
H        0.1995393100    0.6233048905    2.2471980848
C        1.5962172013   -0.7529411735    4.1231769655
O        1.7812278409    0.2768966197    4.7161987547
O        1.3883380378   -1.9219411995    4.7700342195
H        1.3885252325   -1.6850580753    5.7086988549
H        3.2045983460   -2.4055512295    2.7287753937
H        3.4041944232   -2.6057711685    0.2618749327
15   

H        2.0149318594   -1.1944356742   -1.2224247629
C        1.9110676420   -1.1123787007   -0.1439589372
C        2.6681613659   -1.9321749912    0.6994125421
C        2.5343907127   -1.8244161650    2.0897965145
C        1.6372851376   -0.9181310888    2.6452160037
C        0.8985797370   -0.0768994564    1.7970061179
C        1.0272176380   -0.1795073101    0.4069586240
H        0.4454685213    0.4694570521   -0.2415052015
H        0.2252789492    0.6605290644    2.2278618476
C        1.5411137294   -0.7595713251    4.1160844188
O        1.4896788121    0.2955801061    4.6937603843
O        1.5887056007   -1.9344692831    4.7856505126
H        1.5334300815   -1.6844632460    5.7193966486
H        3.1353327827   -2.4599818448    2.7355715133
H        3.3639673230   -2.6510263090    0.2761816346
15   

H        2.0401969234   -1.1866164695   -1.2236654951
C        1.9256942960   -1.1083635595   -0.1459942686
C        2.6489177294   -1.9537231850    0.7011597437
C        2.5017324774   -1.8517468180    2.0907549812
C        1.6270710150   -0.9213588956    2.6441673895
C        0.9177714983   -0.0597305848    1.7893952786
C        1.0602966003   -0.1566430949    0.4005045187
H        0.5019780023    0.5104157958   -0.2502097222
H        0.2537898583    0.6897961897    2.2143288783
C        1.4956788248   -0.7734899047    4.1107672385
O        1.2113706235    0.2520767369    4.6764130352
O        1.7686270425   -1.9065723848    4.7996536259
H        1.6502227180   -1.6594025299    5.7283735565
H        3.0806722698   -2.5125273846    2.7312406166
H        3.3291006236   -2.6893795809    0.2814062448
15   

H        2.0648546384   -1.1740152491   -1.2244974951
C        1.9406967286   -1.1009767582   -0.1475280409
C        2.6308866922   -1.9717980159    0.7007474159
C        2.4713770199   -1.8775965807    2.0896518253
C        1.6211151905   -0.9241232014    2.6435138155
C        0.9377967168   -0.0436201025    1.7849997324
C        1.0931463853   -0.1330593496    0.3971575241
H        0.5565642661    0.5511417356   -0.2540590840
H        0.2815477541    0.7154938625    2.2051743220
C        1.4546560578   -0.7934231178    4.1070663019
O        0.9511230189    0.1524037904    4.6606374231
O        1.9392641825   -1.8416828332    4.8143219457
H        1.7607624919   -1.6121183777    5.7380124383
H        3.0265197180   -2.5652937030    2.7226411646
H        3.2946105989   -2.7230502852    0.2822494237
15   

H        2.1248479154   -1.0886097795   -1.2217068573
C        1.9689205174   -1.0630879729   -0.1466950750
C        3.0551203808   -1.1833803942    0.7247592577
C        2.8547364967   -1.1505359610    2.1112145931
C        1.5758198306   -0.9981885517    2.6410089043
C        0.4868535431   -0.8776673452    1.7576335753
C        0.6811191496   -0.9097913739    0.3722463120
H       -0.1692853469   -0.8155215596   -0.2971323565
H       -0.5184873234   -0.7580303785    2.1557491154
C        1.3386134267   -0.9604966406    4.0999134626
O        0.2563915372   -0.8311031359    4.6169866066
O        2.4596394716   -1.0856137083    4.8494203508
H        2.1436198106   -1.0425287635    5.7637993764
H        3.7224387030   -1.2469562277    2.7588657564
H        4.0585607700   -1.3027877948    0.3261256706
