15   

H        1.8842724018   -1.1991916514   -1.1371842359
C        1.8987178348   -1.1506325705   -0.0515834465
C        2.9604232098   -1.7146331512    0.6608461637
C        2.9825284576   -1.6497953277    2.0590918420
C        1.9375468413   -1.0281463963    2.7676692330
C        0.8785967402   -0.4523805371    2.0339748165
C        0.8607396308   -0.5163518398    0.6357096972
H        0.0423802557   -0.0656189089    0.0806579902
H        0.0687235719    0.0716383514    2.5334400744
C        1.9680897212   -0.9741908872    4.2380961931
O        2.9986689886   -1.1458832446    4.8281131912
O        0.8177008376   -0.7689023661    4.9117254249
H        0.0392105000   -0.8750360873    4.3499263529
H        3.8159183612   -2.0893412845    2.6036406442
H        3.7725237567   -2.2030439544    0.1295413518
15   

H        1.8831718647   -1.2657700313   -1.1390798109
C        1.8970454636   -1.2042687414   -0.0541434156
C        2.9492067808   -1.7754479045    0.6670121683
C        2.9712616085   -1.6927173396    2.0645056948
C        1.9359399722   -1.0441460645    2.7630742791
C        0.8866650475   -0.4625336530    2.0205230182
C        0.8681720055   -0.5453009616    0.6234476292
H        0.0572149442   -0.0888053321    0.0622824165
H        0.0861099670    0.0811463049    2.5146934746
C        1.9669692172   -0.9570638609    4.2318026208
O        2.9798986341   -1.1865614993    4.8318058916
O        0.8201798788   -0.6788194542    4.8963881059
H        0.0378185925   -0.9607088413    4.4072844056
H        3.7984776696   -2.1358859060    2.6154035802
H        3.7546934433   -2.2820115634    0.1427398840
15   

H        1.8952824117   -1.3147963270   -1.1452003936
C        1.9052269739   -1.2439401747   -0.0608175154
C        2.9494912568   -1.8174137167    0.6701924139
C        2.9667922888   -1.7217972755    2.0671163125
C        1.9348322044   -1.0564275894    2.7548755243
C        0.8932059987   -0.4743067201    2.0023001256
C        0.8789762169   -0.5704394413    0.6062154835
H        0.0735589422   -0.1125843063    0.0382582046
H        0.0952747313    0.0792992837    2.4901440305
C        1.9609908645   -0.9456829309    4.2222495775
O        2.9519525252   -1.2278115673    4.8353835352
O        0.8187592339   -0.5923984266    4.8733959186
H        0.0425716754   -1.0278574338    4.5047499681
H        3.7887969443   -2.1655163885    2.6252008694
H        3.7530089744   -2.3349321332    0.1537339243
15   

H        1.9219384140   -1.3340485528   -1.1566002523
C        1.9243661481   -1.2606916471   -0.0723739929
C        2.9607244741   -1.8367368399    0.6679909153
C        2.9681402601   -1.7377121911    2.0649233629
C        1.9345386824   -1.0649413120    2.7430560845
C        0.9004803735   -0.4819242139    1.9809987929
C        0.8957080370   -0.5818140384    0.5852600109
H        0.0953630637   -0.1229752091    0.0110214709
H        0.0999230364    0.0731495428    2.4631209255
C        1.9493363838   -0.9460740059    4.2102333606
O        2.9157964688   -1.2750075839    4.8379326195
O        0.8161977537   -0.5119863117    4.8460295134
H        0.0570666120   -1.0666835643    4.6424416260
H        3.7843752118   -2.1830846345    2.6299671324
H        3.7658669731   -2.3586554718    0.1586295359
15   

H        1.9625243421   -1.3198080301   -1.1735614500
C        1.9536062866   -1.2513615130   -0.0890873247
C        2.9812319979   -1.8319552719    0.6599521370
C        2.9732910021   -1.7398747891    2.0574694880
C        1.9334600613   -1.0683113596    2.7273676171
C        0.9079117240   -0.4820059623    1.9565355713
C        0.9181029545   -0.5752531113    0.5604638335
H        0.1231204062   -0.1144182233   -0.0195140630
H        0.1002623743    0.0670723769    2.4338025135
C        1.9291472176   -0.9585095122    4.1957072780
O        2.8728462897   -1.3253088097    4.8365547622
O        0.8133990387   -0.4410092316    4.8144934309
H        0.0849154923   -1.0676539482    4.8165609711
H        3.7824649760   -2.1894604212    2.6291316205
H        3.7911793927   -2.3524368640    0.1568721756
15   

H        2.0142388076   -1.2828794451   -1.1913967022
C        1.9903309718   -1.2256946780   -0.1065355333
C        3.0075075545   -1.8137960045    0.6509045587
C        2.9792036405   -1.7374021756    2.0491944316
C        1.9298993016   -1.0728673150    2.7115214760
C        0.9147196087   -0.4799142331    1.9320799641
C        0.9448404511   -0.5579059453    0.5354256950
H        0.1563720483   -0.0931082716   -0.0501713661
H        0.0970702894    0.0584789088    2.4045211182
C        1.8997871848   -0.9847667810    4.1816034081
O        2.8238412094   -1.3846559978    4.8327016725
O        0.8135931305   -0.3839986397    4.7813436128
H        0.1343853978   -1.0226276622    5.0130069205
H        3.7796470990   -2.1941698550    2.6272434268
H        3.8245887173   -2.3287746979    0.1538310292
15   

H        2.0655283985   -1.2480380372   -1.2061095084
C        2.0253476521   -1.2030302434   -0.1211894318
C        3.0321747081   -1.7975363904    0.6450396878
C        2.9820067154   -1.7379111214    2.0436153763
C        1.9215270175   -1.0826550885    2.6976662006
C        0.9165937428   -0.4840960377    1.9090728964
C        0.9682024611   -0.5457583412    0.5122976719
H        0.1862881426   -0.0777184190   -0.0794053089
H        0.0879132189    0.0425321695    2.3755873137
C        1.8644636305   -1.0161122555    4.1688072952
O        2.7727895320   -1.4447172497    4.8270557774
O        0.8119089140   -0.3497498152    4.7476210989
H        0.2118246188   -0.9482730340    5.2015791505
H        3.7739686301   -2.2009133058    2.6281803088
H        3.8577233012   -2.3052569194    0.1546302237
15   

H        2.1049814383   -1.2300543536   -1.2160825205
C        2.0501325058   -1.1942414928   -0.1314878718
C        3.0480846029   -1.7924348569    0.6434490548
C        2.9784255521   -1.7453831611    2.0417421618
C        1.9077198260   -1.0978238391    2.6870057638
C        0.9114791743   -0.4964253940    1.8893655370
C        0.9821556223   -0.5460889258    0.4930080827
H        0.2059013393   -0.0766530879   -0.1049619915
H        0.0730988196    0.0205843940    2.3493740484
C        1.8283876185   -1.0446254665    4.1582480503
O        2.7179557128   -1.5064188120    4.8231435473
O        0.8069598146   -0.3320784798    4.7179659736
H        0.3143662119   -0.8554760994    5.3592634566
H        3.7633541291   -2.2119773108    2.6327588467
H        3.8816153335   -2.2937119917    0.1600386034
15   

H        2.1381090757   -1.2182144044   -1.2222100873
C        2.0710299965   -1.1877655956   -0.1381550973
C        3.0659890212   -1.7798877112    0.6453275082
C        2.9803313897   -1.7398802446    2.0430225034
C        1.8963540977   -1.1054619918    2.6790716915
C        0.9027695869   -0.5111088240    1.8727799034
C        0.9896197737   -0.5533145381    0.4771494701
H        0.2149286431   -0.0893852802   -0.1270919272
H        0.0531199375   -0.0066772723    2.3262158031
C        1.7990665535   -1.0595178949    4.1496603314
O        2.6824184080   -1.5241133775    4.8236025509
O        0.7732467616   -0.3583028982    4.6950932323
H        0.4261062690   -0.8001900064    5.4800685747
H        3.7626971405   -2.2021557539    2.6406879268
H        3.9093681361   -2.2712999626    0.1689772280
15   

H        2.1583227196   -1.2056588768   -1.2262780307
C        2.0820246514   -1.1807824470   -0.1426994665
C        3.0744142352   -1.7698461766    0.6463833510
C        2.9766417649   -1.7372517183    2.0435053526
C        1.8830804418   -1.1131925384    2.6732589639
C        0.8917892629   -0.5226280449    1.8614189655
C        0.9907736723   -0.5572785307    0.4664061266
H        0.2174437335   -0.0965613198   -0.1420052862
H        0.0339631019   -0.0282149325    2.3106228733
C        1.7732893668   -1.0739759448    4.1431246634
O        2.6438080444   -1.5545251973    4.8245058725
O        0.7399032048   -0.3917489861    4.6808940055
H        0.5371981302   -0.7272174910    5.5654997440
H        3.7567138359   -2.1975486703    2.6456150106
H        3.9249609938   -2.2534285017    0.1748129845
15   

H        2.1781247072   -1.1905767692   -1.2287171139
C        2.0944891437   -1.1705835529   -0.1455842432
C        3.0873274872   -1.7530670727    0.6478836723
C        2.9798497052   -1.7270421588    2.0444561749
C        1.8758864407   -1.1164706012    2.6690218279
C        0.8839063440   -0.5330757045    1.8529460728
C        0.9928004033   -0.5607052920    0.4585404695
H        0.2186190220   -0.1058181791   -0.1531608941
H        0.0173923638   -0.0507703777    2.2987455436
C        1.7556163487   -1.0842057432    4.1380139996
O        2.6168335977   -1.5726145196    4.8267461092
O        0.6983563091   -0.4452919620    4.6712270085
H        0.6316778721   -0.6531536498    5.6154453424
H        3.7597271654   -2.1828359916    2.6501983635
H        3.9454217196   -2.2268859754    0.1801071984
15   

H        2.1947377996   -1.1718992792   -1.2287321586
C        2.1059676635   -1.1574189813   -0.1459220016
C        3.1015895092   -1.7322259218    0.6496947316
C        2.9872789851   -1.7136386568    2.0458615877
C        1.8733665012   -1.1187168226    2.6677320672
C        0.8783522403   -0.5435258137    1.8495566666
C        0.9943768826   -0.5631387921    0.4556082254
H        0.2175957799   -0.1149157119   -0.1577181360
H        0.0034218809   -0.0748249049    2.2934683307
C        1.7453979085   -1.0948666235    4.1361303246
O        2.6008502046   -1.5892391563    4.8282333557
O        0.6573499088   -0.5109972470    4.6661220628
H        0.6999389110   -0.5653211222    5.6333332705
H        3.7687698859   -2.1642752982    2.6533680106
H        3.9668081089   -2.1948619782    0.1838600475
15   

H        2.2017160187   -1.1478211666   -1.2273554430
C        2.1110240339   -1.1406154925   -0.1446299496
C        3.1117708105   -1.7087667308    0.6492947136
C        2.9948178447   -1.6999126551    2.0453201772
C        1.8728523272   -1.1219652454    2.6688464619
C        0.8724021888   -0.5539203234    1.8522814804
C        0.9914071192   -0.5632272022    0.4584595628
H        0.2102889574   -0.1209114532   -0.1536424312
H       -0.0096337861   -0.0997442397    2.2971845239
C        1.7418525834   -1.1091454935    4.1372193448
O        2.5956212908   -1.6110535645    4.8255198551
O        0.6233568342   -0.5811941972    4.6668987331
H        0.7380839982   -0.4603478616    5.6215896631
H        3.7799014215   -2.1462716582    2.6513629860
H        3.9827330514   -2.1592658539    0.1822612957
15   

H        2.2038388259   -1.1231714295   -1.2236494816
C        2.1129231242   -1.1247855224   -0.1409147630
C        3.1191222869   -1.6888219154    0.6489656270
C        3.0017814270   -1.6916899224    2.0449579806
C        1.8738142181   -1.1299833572    2.6727251032
C        0.8675453614   -0.5665630865    1.8600200717
C        0.9872133626   -0.5637301344    0.4662012331
H        0.2015242359   -0.1254116214   -0.1429239341
H       -0.0201895881   -0.1263526106    2.3074970123
C        1.7425057022   -1.1297618481    4.1413487381
O        2.5948292523   -1.6432847721    4.8216789977
O        0.5999696414   -0.6453359559    4.6728183693
H        0.7515957899   -0.3386902404    5.5778783972
H        3.7908819832   -2.1356243542    2.6475891125
H        3.9944201449   -2.1275486273    0.1788243714
15   

H        2.2035652616   -1.0996075584   -1.2184316503
C        2.1128412277   -1.1120049147   -0.1357417524
C        3.1231366822   -1.6763304193    0.6486286523
C        3.0059725127   -1.6934149009    2.0445046712
C        1.8741988405   -1.1456128038    2.6777920496
C        0.8633652887   -0.5825223298    1.8705020808
C        0.9829668733   -0.5653803161    0.4767624532
H        0.1937318809   -0.1278106001   -0.1283203955
H       -0.0285854445   -0.1547487087    2.3214938286
C        1.7438508674   -1.1595768666    4.1464720475
O        2.5897002815   -1.6921276373    4.8182492012
O        0.5891191364   -0.6919566598    4.6844649821
H        0.7563617458   -0.2017551547    5.4991357891
H        3.7980805184   -2.1380323241    2.6427345696
H        4.0013535368   -2.1046099022    0.1742914747
15   

H        2.1957297254   -1.0655977478   -1.2108437189
C        2.1069844237   -1.0912122716   -0.1282058796
C        3.1242481877   -1.6544060456    0.6478470502
C        3.0096525481   -1.6887890172    2.0435459814
C        1.8735966598   -1.1596607713    2.6850358472
C        0.8551481370   -0.5985106123    1.8861124512
C        0.9724416164   -0.5636941996    0.4924461205
H        0.1775422425   -0.1280496124   -0.1066012147
H       -0.0416042875   -0.1872861073    2.3427503175
C        1.7466811696   -1.1926938506    4.1535312613
O        2.5937540428   -1.7314971790    4.8159724646
O        0.5843044840   -0.7355723178    4.7051138892
H        0.7466948565   -0.0720224771    5.3842213722
H        3.8069647936   -2.1329392992    2.6352785234
H        4.0057441055   -2.0687579906    0.1672065113
15   

H        2.1896138735   -1.0231657749   -1.1989444706
C        2.1009161659   -1.0660843535   -0.1168250297
C        3.1200432914   -1.6382980123    0.6501148537
C        3.0052149344   -1.6958555120    2.0449580714
C        1.8678648940   -1.1799114602    2.6945708285
C        0.8469241759   -0.6103638759    1.9050527100
C        0.9641949474   -0.5530279855    0.5120678269
H        0.1672792141   -0.1121759668   -0.0805016705
H       -0.0529640824   -0.2127853544    2.3674559968
C        1.7415560525   -1.2388603941    4.1617148102
O        2.5707986420   -1.8107868799    4.8154003260
O        0.6010662935   -0.7318610651    4.7354519092
H        0.7746081666    0.0716806668    5.2340629708
H        3.8034255156   -2.1475323986    2.6298843083
H        4.0029205684   -2.0421218704    0.1630152076
15   

H        2.1913032646   -0.9619805929   -1.1811776801
C        2.1009946244   -1.0251334528   -0.1001497017
C        3.1204599137   -1.6090872198    0.6574223342
C        3.0031275328   -1.6940388883    2.0505727007
C        1.8636781724   -1.1928727811    2.7076959614
C        0.8417696488   -0.6121140142    1.9278663220
C        0.9613777658   -0.5279288035    0.5363779552
H        0.1635460430   -0.0801000575   -0.0497595292
H       -0.0623343557   -0.2304020016    2.3953170588
C        1.7335516212   -1.2860274488    4.1720040923
O        2.5470794022   -1.8862187993    4.8167186007
O        0.6300193536   -0.7166803774    4.7707449260
H        0.8012632659    0.1859191574    5.0515072455
H        3.8007634103   -2.1558947869    2.6284595554
H        4.0051310950   -2.0015732698    0.1642505753
15   

H        2.1944519502   -0.8994935965   -1.1601749124
C        2.1026335262   -0.9812870264   -0.0804861660
C        3.1215602889   -1.5776451779    0.6680517497
C        3.0018558156   -1.6881131941    2.0591176251
C        1.8613113369   -1.1990731276    2.7232015641
C        0.8392514552   -0.6064463355    1.9525701783
C        0.9611041079   -0.4973299514    0.5629440867
H        0.1629905215   -0.0421700166   -0.0172149858
H       -0.0686829148   -0.2391145415    2.4240473425
C        1.7266546409   -1.3254933139    4.1840171593
O        2.5229916889   -1.9593575847    4.8163591587
O        0.6772039887   -0.6878346228    4.8066287560
H        0.8181736138    0.2612559474    4.8588873728
H        3.7982559120   -2.1608485523    2.6300427680
H        4.0072416862   -1.9608739427    0.1693439344
15   

H        2.1843836549   -0.8584524207   -1.1414497703
C        2.0944760652   -0.9524329709   -0.0625531079
C        3.1144594359   -1.5581509182    0.6768698974
C        2.9970969382   -1.6852592902    2.0666003788
C        1.8586266650   -1.2025429023    2.7386772608
C        0.8345602625   -0.6014212317    1.9771927428
C        0.9540337482   -0.4761430310    0.5886255509
H        0.1545856821   -0.0156817721    0.0144363250
H       -0.0747943335   -0.2435206340    2.4530306547
C        1.7265393064   -1.3498761132    4.1973771368
O        2.5034087052   -2.0224237029    4.8141474954
O        0.7378277358   -0.6540267079    4.8415011394
H        0.8070926336    0.2927333846    4.6857291610
H        3.7938887888   -2.1658665212    2.6305241231
H        3.9989662288   -1.9362372834    0.1720917882
15   

H        2.1535743014   -0.8467005758   -1.1302883120
C        2.0697840537   -0.9457184020   -0.0513163987
C        3.0920521632   -1.5590543973    0.6784247731
C        2.9828404876   -1.6927148001    2.0680455695
C        1.8512511935   -1.2079021679    2.7500525873
C        0.8236614566   -0.6003442617    1.9982864185
C        0.9349257241   -0.4690462542    0.6094460992
H        0.1334419528   -0.0040633886    0.0417151008
H       -0.0831992522   -0.2441503172    2.4798412861
C        1.7320799397   -1.3605367496    4.2090372779
O        2.4827995999   -2.0780554326    4.8083043997
O        0.8064534336   -0.6146942322    4.8726871738
H        0.7703461006    0.2910990003    4.5467632775
H        3.7814907766   -2.1787581700    2.6247826979
H        3.9721578488   -1.9377731771    0.1663881778
15   

H        2.1055012656   -0.8628420620   -1.1262454404
C        2.0317005801   -0.9602319498   -0.0463701967
C        3.0565076217   -1.5809846926    0.6732067543
C        2.9607100677   -1.7118368412    2.0638970264
C        1.8412371047   -1.2157724141    2.7576073990
C        0.8097266497   -0.6019660340    2.0160811965
C        0.9074443992   -0.4741256959    0.6257142664
H        0.1039714600   -0.0040670564    0.0649807105
H       -0.0903129830   -0.2385815486    2.5045084188
C        1.7446312744   -1.3600023303    4.2189677666
O        2.4629322401   -2.1234549509    4.8019628397
O        0.8796504269   -0.5710367319    4.8998210819
H        0.7136785513    0.2641547569    4.4462994831
H        3.7618687261   -2.2022288595    2.6132910109
H        3.9286133696   -1.9668150455    0.1527805452
15   

H        2.0497618918   -0.8992883148   -1.1276295868
C        1.9871879890   -0.9903081062   -0.0464748146
C        3.0112530106   -1.6225221290    0.6637837382
C        2.9305861969   -1.7439338199    2.0560968135
C        1.8284476447   -1.2258682113    2.7613729453
C        0.7964797871   -0.6012046759    2.0292343601
C        0.8786812100   -0.4838441614    0.6367452339
H        0.0759662762   -0.0047604649    0.0825952601
H       -0.0920541410   -0.2197410772    2.5241574395
C        1.7595380070   -1.3521456080    4.2260588572
O        2.4386596347   -2.1607815522    4.7957903969
O        0.9540626887   -0.5217672158    4.9195987469
H        0.6435407285    0.2201966115    4.3848134531
H        3.7321467582   -2.2411623240    2.5988096776
H        3.8717319711   -2.0232583523    0.1352729538
15   

H        1.9917625355   -0.9393140197   -1.1330685050
C        1.9427810710   -1.0198858886   -0.0503794435
C        2.9616656746   -1.6704140080    0.6501000529
C        2.8991429987   -1.7770471683    2.0443308584
C        1.8214221145   -1.2257646107    2.7626939874
C        0.7944184170   -0.5812825429    2.0399415777
C        0.8580352022   -0.4798440813    0.6450033281
H        0.0601435204    0.0153060913    0.0980813511
H       -0.0755072793   -0.1674699074    2.5406549913
C        1.7842938436   -1.3319329438    4.2312348889
O        2.4463763271   -2.1623277464    4.7902588936
O        1.0071194014   -0.4880788124    4.9361972834
H        0.5258321485    0.1307977126    4.3713620098
H        3.6984564385   -2.2865966682    2.5789286755
H        3.8049515021   -2.0955078368    0.1129442981
