15   

H        1.8844836483   -1.1974125535   -1.1372588807
C        1.8989259082   -1.1491084947   -0.0516466612
C        2.9606299579   -1.7132800001    0.6606463259
C        2.9827072548   -1.6488148268    2.0589068599
C        1.9377002238   -1.0273816360    2.7676382877
C        0.8787646101   -0.4514125502    2.0340867601
C        0.8609361404   -0.5150095765    0.6358011198
H        0.0425692811   -0.0641624978    0.0808541120
H        0.0688495352    0.0724084366    2.5336909440
C        1.9680897212   -0.9741908872    4.2380961931
O        2.9986689886   -1.1458832446    4.8281131912
O        0.8177008376   -0.7689023661    4.9117254249
H        0.0392105000   -0.8750360873    4.3499263529
H        3.8160618649   -2.0885556048    2.6033534011
H        3.7727304377   -2.2015703315    0.1292297735
15   

H        1.8836719779   -1.2629982298   -1.1392467945
C        1.8975128029   -1.2018934344   -0.0542875771
C        2.9496611137   -1.7733279769    0.6666802653
C        2.9716340204   -1.6911777487    2.0642054616
C        1.9362438670   -1.0429533565    2.7629972886
C        0.8870036998   -0.4610362678    2.0206422703
C        0.8685939155   -0.5432199514    0.6235269241
H        0.0576314676   -0.0865566330    0.0625073732
H        0.0863572742    0.0823209933    2.5150181629
C        1.9669692172   -0.9570638609    4.2318026208
O        2.9798986341   -1.1865614993    4.8318058916
O        0.8201798788   -0.6788194542    4.8963881059
H        0.0378185925   -0.9607088413    4.4072844056
H        3.7987830531   -2.1346424916    2.6149669355
H        3.7551669283   -2.2796965008    0.1422476626
15   

H        1.8958463946   -1.3125104929   -1.1453674767
C        1.9057390749   -1.2419796309   -0.0609629332
C        2.9499774681   -1.8156621310    0.6699170371
C        2.9671768403   -1.7205236682    2.0668721431
C        1.9351399580   -1.0554409129    2.7547953617
C        0.8935592152   -0.4730699593    2.0023556040
C        0.8794321664   -0.5687219571    0.6062337098
H        0.0740207259   -0.1107311575    0.0383786191
H        0.0955352134    0.0802657548    2.4903531047
C        1.9609908645   -0.9456829309    4.2222495775
O        2.9519525252   -1.2278115673    4.8353835352
O        0.8187592339   -0.5923984266    4.8733959186
H        0.0425716754   -1.0278574338    4.5047499681
H        3.7891117249   -2.1644875116    2.6248656287
H        3.7535241631   -2.3330200747    0.1533419957
15   

H        1.9219845230   -1.3339045492   -1.1566112103
C        1.9244072827   -1.2605679415   -0.0723835672
C        2.9607626185   -1.8366265644    0.6679749308
C        2.9681696645   -1.7376319375    2.0649094201
C        1.9345621547   -1.0648787565    2.7430507364
C        0.9005082032   -0.4818455598    1.9810001251
C        0.8957446728   -0.5817051979    0.5852589915
H        0.0954010328   -0.1228576998    0.0110255824
H        0.0999441152    0.0732112655    2.4631304642
C        1.9493363838   -0.9460740059    4.2102333606
O        2.9157964688   -1.2750075839    4.8379326195
O        0.8161977537   -0.5119863117    4.8460295134
H        0.0570666120   -1.0666835643    4.6424416260
H        3.7843989863   -2.1830202071    2.6299488814
H        3.7659076020   -2.3585355019    0.1586075054
15   

H        1.9614627011   -1.3224349479   -1.1733840313
C        1.9526720614   -1.2536214514   -0.0889320395
C        2.9803806094   -1.8339671001    0.6601879220
C        2.9726486230   -1.7413400075    2.0576720002
C        1.9329492145   -1.0694587328    2.7274540452
C        0.9072900383   -0.4834524582    1.9565384363
C        0.9172714505   -0.5772484148    0.5605041249
H        0.1222440030   -0.1165727752   -0.0195395670
H        0.0997820537    0.0659329530    2.4336923907
C        1.9291472176   -0.9585095122    4.1957072780
O        2.8728462897   -1.3253088097    4.8365547622
O        0.8133990387   -0.4410092316    4.8144934309
H        0.0849154923   -1.0676539482    4.8165609711
H        3.7819495822   -2.1906307170    2.6293859801
H        3.7902675311   -2.3546199868    0.1571883395
15   

H        2.0124646696   -1.2864616171   -1.1912257295
C        1.9887839616   -1.2287824878   -0.1063856616
C        3.0061174308   -1.8165394808    0.6511125548
C        2.9781706299   -1.7394029187    2.0493700031
C        1.9290774986   -1.0744444885    2.7116037238
C        0.9136983745   -0.4819085732    1.9321023285
C        0.9434612169   -0.5606451645    0.5354838367
H        0.1548997340   -0.0960674805   -0.0501632316
H        0.0962670879    0.0568990013    2.4044494022
C        1.8997871848   -0.9847667810    4.1816034081
O        2.8238412094   -1.3846559978    4.8327016725
O        0.8135931305   -0.3839986397    4.7813436128
H        0.1343853978   -1.0226276622    5.0130069205
H        3.7788246119   -2.1957567103    2.6274544890
H        3.8230962746   -2.3317407354    0.1541017073
15   

H        2.0645174699   -1.2497850985   -1.2060673483
C        2.0244713809   -1.2045390469   -0.1211521518
C        3.0313947001   -1.7988751837    0.6450826999
C        2.9814330303   -1.7388889899    2.0436504073
C        1.9210704489   -1.0834303043    2.6976862456
C        0.9160182528   -0.4850782670    1.9090874063
C        0.9674202921   -0.5471021824    0.5123207704
H        0.1854462600   -0.0791703990   -0.0793890357
H        0.0874552184    0.0417503769    2.3755844877
C        1.8644636305   -1.0161122555    4.1688072952
O        2.7727895320   -1.4447172497    4.8270557774
O        0.8119089140   -0.3497498152    4.7476210989
H        0.2118246188   -0.9482730340    5.2015791505
H        3.7735141337   -2.2016843901    2.6282178817
H        3.8568845541   -2.3066996334    0.1546818774
15   

H        2.1054610064   -1.2293178570   -1.2160851482
C        2.0505464932   -1.1936043604   -0.1314905633
C        3.0484511085   -1.7918692797    0.6434522981
C        2.9786932564   -1.7449691823    2.0417457350
C        1.9079326095   -1.0974947146    2.6870041856
C        0.9117496532   -0.4960086092    1.8893576227
C        0.9825250301   -0.5455203302    0.4929999262
H        0.2063008951   -0.0760392915   -0.1049737716
H        0.0733154068    0.0209165737    2.3493629726
C        1.8283876185   -1.0446254665    4.1582480503
O        2.7179557128   -1.5064188120    4.8231435473
O        0.8069598146   -0.3320784798    4.7179659736
H        0.3143662119   -0.8554760994    5.3592634566
H        3.7635658018   -2.2116515916    2.6327669606
H        3.8820101451   -2.2931036657    0.1600464303
15   

H        2.1395087079   -1.2160524785   -1.2221904435
C        2.0722374154   -1.1858948269   -0.1381392797
C        3.0670549458   -1.7782301516    0.6453619603
C        2.9811083377   -1.7386674704    2.0430523965
C        1.8969730414   -1.1044947850    2.6790795130
C        0.9035597132   -0.5098806405    1.8727678308
C        0.9906991536   -0.5516411914    0.4771425323
H        0.2160984971   -0.0875769765   -0.1271112066
H        0.0537551142   -0.0056945446    2.3261863452
C        1.7990665535   -1.0595178949    4.1496603314
O        2.6824184080   -1.5241133775    4.8236025509
O        0.7732467616   -0.3583028982    4.6950932323
H        0.4261062690   -0.8001900064    5.4800685747
H        3.7633090168   -2.2012050312    2.6407306287
H        3.9105153307   -2.2695198194    0.1690294411
15   

H        2.1597695603   -1.2033980414   -1.2262337690
C        2.0832723906   -1.1788257576   -0.1426623399
C        3.0755145555   -1.7681136058    0.6464387569
C        2.9774429315   -1.7359840354    2.0435511049
C        1.8837191013   -1.1121803654    2.6732774316
C        0.8926059840   -0.5213414562    1.8614183758
C        0.9918897695   -0.5555267454    0.4664158712
H        0.2186544292   -0.0946676553   -0.1420083493
H        0.0346205962   -0.0271839451    2.3105995087
C        1.7732893668   -1.0739759448    4.1431246634
O        2.6438080444   -1.5545251973    4.8245058725
O        0.7399032048   -0.3917489861    4.6808940055
H        0.5371981302   -0.7272174910    5.5654997440
H        3.7573433681   -2.1965558921    2.6456724504
H        3.9261448044   -2.2515688792    0.1748890129
15   

H        2.1789663039   -1.1891792393   -1.2286798851
C        2.0952155376   -1.1693745551   -0.1455524649
C        3.0879678519   -1.7519985177    0.6479200742
C        2.9803162016   -1.7262612189    2.0444847113
C        1.8762590984   -1.1158460432    2.6690379132
C        0.8843831171   -0.5322797095    1.8529577259
C        0.9934511245   -0.5596215570    0.4585602455
H        0.2193248997   -0.1046451842   -0.1531445585
H        0.0177765585   -0.0501307060    2.2987463680
C        1.7556163487   -1.0842057432    4.1380139996
O        2.6168335977   -1.5726145196    4.8267461092
O        0.6983563091   -0.4452919620    4.6712270085
H        0.6316778721   -0.6531536498    5.6154453424
H        3.7600923886   -2.1822256795    2.6502287175
H        3.9461097051   -2.2257397117    0.1801523549
15   

H        2.1947374377   -1.1718993344   -1.2287321852
C        2.1059673683   -1.1574190473   -0.1459220238
C        3.1015892564   -1.7322259944    0.6496946488
C        2.9872788214   -1.7136387313    2.0458615110
C        1.8733663892   -1.1187168856    2.6677320595
C        0.8783520731   -0.5435258849    1.8495567146
C        0.9943766262   -0.5631388614    0.4556082704
H        0.2175954844   -0.1149157739   -0.1577180354
H        0.0034217385   -0.0748249709    2.2934684200
C        1.7453979085   -1.0948666235    4.1361303246
O        2.6008502046   -1.5892391563    4.8282333557
O        0.6573499088   -0.5109972470    4.6661220628
H        0.6999389110   -0.5653211222    5.6333332705
H        3.7687697565   -2.1642753738    2.6533678840
H        3.9668078246   -2.1948620486    0.1838599063
15   

H        2.2009826166   -1.1492776090   -1.2274091298
C        2.1103886806   -1.1418740506   -0.1446767775
C        3.1112080809   -1.7098782588    0.6492616404
C        2.9944056870   -1.7007238894    2.0452979664
C        1.8725227100   -1.1226132508    2.6688220096
C        0.8719833772   -0.5547471681    1.8522414689
C        0.9908376663   -0.5643544752    0.4584089367
H        0.2096736274   -0.1221325266   -0.1537023037
H       -0.0099695044   -0.1004090683    2.2971438525
C        1.7418525834   -1.1091454935    4.1372193448
O        2.5956212908   -1.6110535645    4.8255198551
O        0.6233568342   -0.5811941972    4.6668987331
H        0.7380839982   -0.4603478616    5.6215896631
H        3.7795793589   -2.1469067434    2.6513536233
H        3.9821297514   -2.1604594841    0.1822318684
15   

H        2.2026984454   -1.1255998633   -1.2237545404
C        2.1119338136   -1.1268833720   -0.1410067479
C        3.1182434872   -1.6906763450    0.6489068691
C        3.0011362584   -1.6930435319    2.0449203191
C        1.8732988494   -1.1310626816    2.6726769599
C        0.8668933417   -0.5679384520    1.8599346500
C        0.9863275624   -0.5656066691    0.4660953712
H        0.2005691716   -0.1274433223   -0.1430521197
H       -0.0207100539   -0.1274565873    2.3074055617
C        1.7425057022   -1.1297618481    4.1413487381
O        2.5948292523   -1.6432847721    4.8216789977
O        0.5999696414   -0.6453359559    4.6728183693
H        0.7515957899   -0.3386902404    5.5778783972
H        3.7903774827   -2.1366868148    2.6475812160
H        3.9934780993   -2.1295419893    0.1787778268
15   

H        2.2024834666   -1.1019415889   -1.2185552342
C        2.1119031871   -1.1140214455   -0.1358497693
C        3.1223029777   -1.6781147991    0.6485533541
C        3.0053608572   -1.6947182192    2.0444543137
C        1.8737110886   -1.1466509214    2.6777359911
C        0.8627486813   -0.5838430628    1.8704089162
C        0.9821280302   -0.5671825713    0.4766448993
H        0.1928274862   -0.1297605401   -0.1284592114
H       -0.0290767547   -0.1558071041    2.3213995374
C        1.7438508674   -1.1595768666    4.1464720475
O        2.5897002815   -1.6921276373    4.8182492012
O        0.5891191364   -0.6919566598    4.6844649821
H        0.7563617458   -0.2017551547    5.4991357891
H        3.7976020413   -2.1390572905    2.6427141631
H        4.0004590850   -2.1065289842    0.1742256609
15   

H        2.1953623728   -1.0663948183   -1.2108952569
C        2.1066662243   -1.0919010544   -0.1282508570
C        3.1239651322   -1.6550168327    0.6478126323
C        3.0094451169   -1.6892356522    2.0435219697
C        1.8734318446   -1.1600156725    2.6850124607
C        0.8549400140   -0.5989607034    1.8860770298
C        0.9721577552   -0.5643086677    0.4924003745
H        0.1772362284   -0.1287135094   -0.1066534853
H       -0.0417695462   -0.1876455478    2.3427174088
C        1.7466811696   -1.1926938506    4.1535312613
O        2.5937540428   -1.7314971790    4.8159724646
O        0.5843044840   -0.7355723178    4.7051138892
H        0.7466948565   -0.0720224771    5.3842213722
H        3.8068020721   -2.1332917637    2.6352647529
H        4.0054398540   -2.0694156008    0.1671736917
15   

H        2.1905501236   -1.0213839220   -1.1987899238
C        2.1017230096   -1.0645428223   -0.1166906031
C        3.1207577213   -1.6369283976    0.6502441296
C        3.0057345871   -1.6948518941    2.0450562156
C        1.8682760564   -1.1791140757    2.6946409604
C        0.8474469394   -0.6093557393    1.9051306062
C        0.9649128629   -0.5516532216    0.5121775031
H        0.1680567937   -0.1106930133   -0.0803919405
H       -0.0525476492   -0.2119824357    2.3675036410
C        1.7415560525   -1.2388603941    4.1617148102
O        2.5707986420   -1.8107868799    4.8154003260
O        0.6010662935   -0.7318610651    4.7354519092
H        0.7746081666    0.0716806668    5.2340629708
H        3.8038339695   -2.1467395301    2.6299716950
H        4.0036913230   -2.0406476365    0.1631597732
15   

H        2.1933801746   -0.9585842149   -1.1807844509
C        2.1027754072   -1.0221908767   -0.0998077652
C        3.1220317806   -1.6064631615    0.6578013549
C        3.0042629533   -1.6921100758    2.0508735035
C        1.8645707345   -1.1913432033    2.7078771653
C        0.8429100601   -0.6101910928    1.9280133948
C        0.9629558648   -0.5253089359    0.5366067201
H        0.1652617763   -0.0772821260   -0.0495675076
H       -0.0614254071   -0.2288792121    2.3953440667
C        1.7335516212   -1.2860274488    4.1720040923
O        2.5470794022   -1.8862187993    4.8167186007
O        0.6300193536   -0.7166803774    4.7707449260
H        0.8012632659    0.1859191574    5.0515072455
H        3.8016603309   -2.1543657876    2.6287699793
H        4.0068348261   -1.9987474259    0.1647058495
15   

H        2.1961015868   -0.8972069975   -1.1598409644
C        2.1040414749   -0.9793023490   -0.0801956617
C        3.1228005533   -1.5758663809    0.6684083181
C        3.0027463653   -1.6868003295    2.0594086638
C        1.8620064218   -1.1980350314    2.7233576130
C        0.8401424911   -0.6051514042    1.9526603488
C        0.9623461767   -0.4955674284    0.5631040662
H        0.1643450068   -0.0402816582   -0.0171117337
H       -0.0679730477   -0.2380970881    2.4240058928
C        1.7266546409   -1.3254933139    4.1840171593
O        2.5229916889   -1.9593575847    4.8163591587
O        0.6772039887   -0.6878346228    4.8066287560
H        0.8181736138    0.2612559474    4.8588873728
H        3.7989635360   -2.1598024121    2.6303677767
H        4.0085923786   -1.9589567050    0.1697907636
15   

H        2.1842866836   -0.8585680473   -1.1414690696
C        2.0943935849   -0.9525335306   -0.0625698879
C        3.1143868452   -1.5582415288    0.6768474796
C        2.9970450371   -1.6853264737    2.0665817175
C        1.8585864003   -1.2025958972    2.7386682048
C        0.8345085668   -0.6014867809    1.9771894228
C        0.9539612753   -0.4762321160    0.5886181520
H        0.1545064860   -0.0157768255    0.0144335543
H       -0.0748354900   -0.2435717434    2.4530365358
C        1.7265393064   -1.3498761132    4.1973771368
O        2.5034087052   -2.0224237029    4.8141474954
O        0.7378277358   -0.6540267079    4.8415011394
H        0.8070926336    0.2927333846    4.6857291610
H        3.7938473449   -2.1659203444    2.6305021017
H        3.9988868649   -1.9363350279    0.1720628028
15   

H        2.1519477389   -0.8483852232   -1.1305818124
C        2.0684041144   -0.9471872214   -0.0515710081
C        3.0908384688   -1.5603839000    0.6780513464
C        2.9819756820   -1.6937055957    2.0677293527
C        1.8505835422   -1.2086833306    2.7499161281
C        0.8228030813   -0.6013034541    1.9982719189
C        0.9337168723   -0.4703462236    0.6093681872
H        0.1321188445   -0.0054453873    0.0417324017
H       -0.0838827446   -0.2448947357    2.4799957893
C        1.7320799397   -1.3605367496    4.2090372779
O        2.4827995999   -2.0780554326    4.8083043997
O        0.8064534336   -0.6146942322    4.8726871738
H        0.7703461006    0.2910990003    4.5467632775
H        3.7807980205   -2.1795553784    2.6243894228
H        3.9708271069   -1.9392069162    0.1658898231
15   

H        2.1034295676   -0.8647308118   -1.1265608238
C        2.0299459366   -0.9618832888   -0.0466425769
C        3.0549668924   -1.5824802203    0.6727596771
C        2.9596153376   -1.7129560327    2.0635120818
C        1.8403930967   -1.2166599783    2.7574641601
C        0.8086384175   -0.6030544607    2.0161181471
C        0.9059083376   -0.4755928970    0.6256806217
H        0.1022869138   -0.0056258493    0.0650845167
H       -0.0911826673   -0.2394310690    2.5047687164
C        1.7446312744   -1.3600023303    4.2189677666
O        2.4629322401   -2.1234549509    4.8019628397
O        0.8796504269   -0.5710367319    4.8998210819
H        0.7136785513    0.2641547569    4.4462994831
H        3.7609922114   -2.2031272969    2.6127860955
H        3.9269221736   -1.9684228143    0.1521633270
15   

H        2.0483724836   -0.9004097961   -1.1277966515
C        1.9860122066   -0.9912917732   -0.0466179321
C        3.0102245512   -1.6234073710    0.6635125250
C        2.9298575013   -1.7445978754    2.0558593789
C        1.8278837929   -1.2264032299    2.7613005902
C        0.7957481441   -0.6018667513    2.0292944216
C        0.8776489744   -0.4847285620    0.6367657696
H        0.0748308427   -0.0057041318    0.0827150174
H       -0.0926444701   -0.2202689843    2.5243670320
C        1.7595380070   -1.3521456080    4.2260588572
O        2.4386596347   -2.1607815522    4.7957903969
O        0.9540626887   -0.5217672158    4.9195987469
H        0.6435407285    0.2201966115    4.3848134531
H        3.7315665805   -2.2416881310    2.5984805372
H        3.8706044882   -2.0242024312    0.1348842343
15   

H        1.9917912849   -0.9392917093   -1.1330658759
C        1.9428054475   -1.0198662725   -0.0503772142
C        2.9616868870   -1.6703966205    0.6501048825
C        2.8991580280   -1.7770341567    2.0443351340
C        1.8214338738   -1.2257538691    2.7626950496
C        0.7944338281   -0.5812689055    2.0399399574
C        0.8580567855   -0.4798260818    0.6450023685
H        0.0601673337    0.0153255104    0.0980784035
H       -0.0754945976   -0.1674585648    2.5406505297
C        1.7842938436   -1.3319329438    4.2312348889
O        2.4463763271   -2.1623277464    4.7902588936
O        1.0071194014   -0.4880788124    4.9361972834
H        0.5258321485    0.1307977126    4.3713620098
H        3.6984682792   -2.2865866341    2.5789348551
H        3.8049746355   -2.0954895223    0.1129514283
