15   

H        2.1271735055   -1.0610759866   -1.2209000657
C        1.9701880135   -1.0475305553   -0.1458256084
C        3.0517400089   -1.2090819468    0.7250415172
C        2.8496035073   -1.1921327329    2.1114852719
C        1.5750217493   -1.0076583079    2.6408529889
C        0.4892273911   -0.8565667647    1.7591057572
C        0.6850900465   -0.8725847475    0.3736021968
H       -0.1620525606   -0.7512159622   -0.2955417242
H       -0.5139387113   -0.7261740218    2.1592543560
C        1.3363139185   -1.0078945632    4.1002347776
O        0.2532049108   -1.1124393342    4.6203504509
O        2.4619677944   -0.8943832218    4.8444945214
H        2.1477966011   -0.9106827539    5.7603534671
H        3.7100954670   -1.3264421944    2.7621009857
H        4.0522035562   -1.3500578517    0.3259820611
15   

H        2.1246473123   -1.0335678007   -1.2187905165
C        1.9683865544   -1.0309926786   -0.1435298095
C        3.0460703808   -1.2339596901    0.7240858410
C        2.8439185366   -1.2315988433    2.1105081007
C        1.5758451323   -1.0141948099    2.6412102956
C        0.4920431773   -0.8312814280    1.7648196784
C        0.6874089307   -0.8324313084    0.3789791799
H       -0.1568539423   -0.6835925184   -0.2882415188
H       -0.5072725773   -0.6894836837    2.1703957912
C        1.3412519635   -1.0533571554    4.1018528964
O        0.3073808204   -1.3862309155    4.6242305881
O        2.4261718124   -0.7149027733    4.8376101360
H        2.1290428502   -0.7916050311    5.7560132997
H        3.6941522893   -1.4007107278    2.7666543025
H        4.0421658875   -1.3970849912    0.3225687412
15   

H        2.1177431018   -1.0081097054   -1.2164901173
C        1.9639218672   -1.0165900949   -0.1409080597
C        3.0381700366   -1.2616044527    0.7207711817
C        2.8382667866   -1.2736982318    2.1073376471
C        1.5785392440   -1.0245961847    2.6418248852
C        0.4961126187   -0.8062937156    1.7737735715
C        0.6889138688   -0.7926178320    0.3874299061
H       -0.1526154788   -0.6144556699   -0.2760297463
H       -0.4981077642   -0.6504707281    2.1861040888
C        1.3535862452   -1.0994281784    4.1052591957
O        0.4186322885   -1.6454844608    4.6319319426
O        2.3541350849   -0.5472879040    4.8298364614
H        2.0881453248   -0.6791013189    5.7514192918
H        3.6787827186   -1.4750823643    2.7669419909
H        4.0284889213   -1.4467075274    0.3145410710
15   

H        2.1067586996   -0.9837344278   -1.2155328136
C        1.9581488838   -1.0062315135   -0.1394204134
C        3.0296469314   -1.2973336303    0.7117965598
C        2.8360211088   -1.3272371152    2.0988945858
C        1.5870224546   -1.0499659896    2.6422061447
C        0.5058383986   -0.7862553442    1.7866920434
C        0.6923813490   -0.7543645371    0.3996199295
H       -0.1466354230   -0.5407649582   -0.2565032168
H       -0.4808957474   -0.6098540793    2.2079199584
C        1.3771912808   -1.1498826846    4.1105338262
O        0.5893811345   -1.8830960933    4.6473983084
O        2.2370600134   -0.3838137339    4.8190275875
H        2.0116145790   -0.5557696808    5.7446681496
H        3.6699106934   -1.5622609636    2.7556355222
H        4.0120815351   -1.5040915917    0.2969651618
15   

H        2.0896327146   -0.9507976847   -1.2157595161
C        1.9514565995   -0.9933206348   -0.1388611783
C        3.0217368134   -1.3390519195    0.6934669536
C        2.8415329041   -1.3943200049    2.0815640886
C        1.6068408550   -1.0943136274    2.6431597313
C        0.5275817017   -0.7671179386    1.8080124981
C        0.7008670645   -0.7096809289    0.4199554393
H       -0.1361632478   -0.4497560479   -0.2218173901
H       -0.4463830147   -0.5603795422    2.2442916874
C        1.4183718898   -1.2028539988    4.1181781231
O        0.8236936331   -2.0837055336    4.6786978889
O        2.0538791430   -0.2230851357    4.7977099906
H        1.8716491261   -0.4128121180    5.7292537581
H        3.6732220084   -1.6688498001    2.7254211174
H        3.9926307472   -1.5674593989    0.2631027919
15   

H        2.0780868450   -0.9098248870   -1.2148586175
C        1.9525835098   -0.9734707257   -0.1374505144
C        3.0178275758   -1.3854872062    0.6707002822
C        2.8537545594   -1.4680159714    2.0594546257
C        1.6377601395   -1.1415041076    2.6452017903
C        0.5679591380   -0.7298469309    1.8353317970
C        0.7247766759   -0.6452633274    0.4467129128
H       -0.1065118948   -0.3263711154   -0.1756232662
H       -0.3858865492   -0.4777537322    2.2914383299
C        1.4730089987   -1.2405544486    4.1258747246
O        1.1012532053   -2.2147593928    4.7218263265
O        1.7928662393   -0.0917310239    4.7602209504
H        1.6470275793   -0.2803550658    5.6983165475
H        3.6824125462   -1.7907054348    2.6845548234
H        3.9726394265   -1.6427917246    0.2210765848
15   

H        2.0619301342   -0.8790490278   -1.2142883770
C        1.9514689823   -0.9557134702   -0.1360818646
C        3.0114372729   -1.4250708336    0.6471003893
C        2.8664447572   -1.5247666222    2.0368281587
C        1.6710777304   -1.1693990617    2.6487218174
C        0.6126024786   -0.6836217472    1.8642054902
C        0.7500735495   -0.5820554618    0.4747114678
H       -0.0749027751   -0.2118182244   -0.1272486059
H       -0.3175966145   -0.3865706663    2.3416222258
C        1.5383119488   -1.2544280516    4.1318157707
O        1.4097146879   -2.2666544531    4.7662480239
O        1.5122967903   -0.0369474505    4.7172102121
H        1.4075167206   -0.2213767464    5.6616554408
H        3.6920747113   -1.8895830655    2.6426976449
H        3.9478265430   -1.7126184266    0.1774794127
15   

H        2.0487281488   -0.8846213789   -1.2172489425
C        1.9501732227   -0.9588597941   -0.1377205211
C        3.0022849752   -1.4686812763    0.6303329404
C        2.8726607065   -1.5653425127    2.0217252364
C        1.6979208442   -1.1710126480    2.6518016138
C        0.6503151605   -0.6382455901    1.8810805950
C        0.7728984471   -0.5398085489    0.4900044225
H       -0.0447277292   -0.1354389478   -0.0998982487
H       -0.2602934523   -0.3018338217    2.3702923618
C        1.5964290045   -1.2427548451    4.1339544843
O        1.7085418184   -2.2410864406    4.7950790157
O        1.2701378645   -0.0543682062    4.6902012153
H        1.2142224042   -0.2364163843    5.6393679894
H        3.6927049698   -1.9612305532    2.6159929283
H        3.9210358123   -1.7898443241    0.1478198117
15   

H        2.0333481530   -0.9131401679   -1.2227800589
C        1.9445722860   -0.9746813185   -0.1416054349
C        2.9880041272   -1.5117233421    0.6193108858
C        2.8713850995   -1.5919213787    2.0127836059
C        1.7174240984   -1.1528007744    2.6543384806
C        0.6776824436   -0.5944720031    1.8881685999
C        0.7885129651   -0.5127329689    0.4950169418
H       -0.0224196741   -0.0880496969   -0.0898373199
H       -0.2191299289   -0.2253045664    2.3794631121
C        1.6441545613   -1.2154775829    4.1344176728
O        1.9849076384   -2.1537229375    4.8074671940
O        1.0718712762   -0.1194505245    4.6837191743
H        1.0708247625   -0.2971067968    5.6354756712
H        3.6854929567   -2.0098007007    2.6006347180
H        3.8902879417   -1.8671374339    0.1297716615
15   

H        2.0177215079   -0.9530388569   -1.2296521424
C        1.9381291483   -0.9963334923   -0.1468788219
C        2.9725888744   -1.5530641611    0.6115626646
C        2.8683765349   -1.6096800419    2.0070876944
C        1.7361895746   -1.1234446828    2.6558132027
C        0.7023970422   -0.5507019579    1.8890971894
C        0.8022460645   -0.4928424148    0.4939286195
H       -0.0027080929   -0.0551394923   -0.0896012313
H       -0.1835730956   -0.1515386838    2.3766150874
C        1.6838699788   -1.1792633719    4.1339537702
O        2.2303402313   -2.0124054923    4.8120087637
O        0.9059704721   -0.2185099742    4.6851732267
H        0.9568791724   -0.3830011591    5.6380267223
H        3.6777040765   -2.0441231971    2.5899185161
H        3.8587785477   -1.9425880613    0.1185777881
15   

H        1.9967623574   -0.9985489851   -1.2355066903
C        1.9271955513   -1.0218995428   -0.1514283068
C        2.9532646138   -1.5945607085    0.6058808609
C        2.8626774277   -1.6251127168    2.0031200482
C        1.7537231703   -1.0925346466    2.6572694761
C        0.7245635382   -0.5100196727    1.8889142283
C        0.8119452363   -0.4783033839    0.4920856133
H        0.0122840017   -0.0302805034   -0.0909041716
H       -0.1498627341   -0.0810755379    2.3718313020
C        1.7167859944   -1.1395533839    4.1348693982
O        2.4373567390   -1.8226228019    4.8195694351
O        0.7649302980   -0.3497082527    4.6851518477
H        0.8588038481   -0.4876049231    5.6390230452
H        3.6683853297   -2.0734523822    2.5805920362
H        3.8229864859   -2.0170558899    0.1107123035
15   

H        1.9716838091   -1.0475018603   -1.2388639903
C        1.9132133597   -1.0499014916   -0.1538816140
C        2.9316319744   -1.6363231718    0.6029275452
C        2.8559176633   -1.6392787990    2.0013721641
C        1.7711758701   -1.0614683951    2.6583320889
C        0.7462428377   -0.4710201666    1.8892632705
C        0.8193502586   -0.4666599110    0.4912754784
H        0.0247347086   -0.0093774582   -0.0914311615
H       -0.1134979926   -0.0118416448    2.3706635534
C        1.7452535820   -1.0947464362    4.1362315885
O        2.6010901807   -1.5895811598    4.8276185173
O        0.6531705492   -0.5093032304    4.6816360789
H        0.7779856462   -0.6089904082    5.6367401866
H        3.6566943123   -2.0997823896    2.5761518060
H        3.7841533844   -2.0910886451    0.1064277986
15   

H        1.9428084246   -1.0963256145   -1.2386207537
C        1.8962409434   -1.0779957033   -0.1532147387
C        2.9074102969   -1.6776606274    0.6032335790
C        2.8472829559   -1.6530115717    2.0022310415
C        1.7877701653   -1.0308317694    2.6592356365
C        0.7669194899   -0.4332574674    1.8913605185
C        0.8243410311   -0.4558361940    0.4928024495
H        0.0346413147    0.0102409265   -0.0896116272
H       -0.0752431570    0.0541580078    2.3761403644
C        1.7680236527   -1.0466950957    4.1378279895
O        2.7114770644   -1.3258307833    4.8353945750
O        0.5776518684   -0.6891149926    4.6743416281
H        0.7186242532   -0.7416531274    5.6309316807
H        3.6406252426   -2.1237622708    2.5789886724
H        3.7419412122   -2.1639321905    0.1060330836
15   

H        1.9153643518   -1.1385416211   -1.2355605445
C        1.8803416152   -1.1010624397   -0.1502144459
C        2.8824906058   -1.7163503430    0.6063618038
C        2.8371716160   -1.6662333475    2.0052864486
C        1.8045831785   -0.9994947031    2.6597614547
C        0.7894774601   -0.3928855669    1.8941241872
C        0.8314073960   -0.4399930995    0.4956122427
H        0.0476221668    0.0360746583   -0.0866955246
H       -0.0337939237    0.1199073024    2.3852614432
C        1.7840533419   -0.9976994261    4.1397371598
O        2.7616547916   -1.0494982360    4.8426783265
O        0.5419986545   -0.8781401744    4.6641638632
H        0.6825560617   -0.8801605042    5.6221922356
H        3.6205535482   -2.1476981458    2.5866194713
H        3.6978778623   -2.2341902078    0.1092897902
15   

H        1.8897886686   -1.1733115843   -1.2310668132
C        1.8653336124   -1.1182842980   -0.1461792691
C        2.8555596202   -1.7517523573    0.6116652816
C        2.8236111673   -1.6785019759    2.0100256110
C        1.8194261163   -0.9679417384    2.6602269800
C        0.8133161180   -0.3486614132    1.8959988156
C        0.8408646048   -0.4178540126    0.4980396942
H        0.0649310954    0.0702590989   -0.0847938284
H        0.0095147301    0.1890705330    2.3926626941
C        1.7934632355   -0.9448832003    4.1430370010
O        2.7502839752   -0.7666230362    4.8516483970
O        0.5468175477   -1.0710106540    4.6534113877
H        0.6708119661   -1.0220542449    5.6123858013
H        3.5954065269   -2.1730652029    2.5954338373
H        3.6506069377   -2.3015119890    0.1159354919
15   

H        1.8737395492   -1.2017559670   -1.2273502697
C        1.8548441814   -1.1316264076   -0.1432235073
C        2.8264987083   -1.7872613572    0.6201856140
C        2.8015836751   -1.6941567534    2.0176222523
C        1.8244835839   -0.9416422295    2.6591073548
C        0.8359084986   -0.3018933923    1.8917938059
C        0.8555570373   -0.3900061557    0.4947757327
H        0.0933600065    0.1148183147   -0.0919272959
H        0.0524912996    0.2650288634    2.3883476569
C        1.7910699962   -0.8900048866    4.1451899715
O        2.6770102737   -0.4859195492    4.8509845332
O        0.5974140417   -1.2735529096    4.6513673280
H        0.6959140346   -1.1757513848    5.6094478342
H        3.5577835889   -2.2057506009    2.6082045493
H        3.6011896257   -2.3695058500    0.1293566641
15   

H        1.8759939094   -1.2160240324   -1.2250215675
C        1.8528322455   -1.1344746649   -0.1417756948
C        2.7940654905   -1.8190167748    0.6345525983
C        2.7635605273   -1.7112254378    2.0308891714
C        1.8088804705   -0.9196584023    2.6566764989
C        0.8545994898   -0.2450487468    1.8781747408
C        0.8795037618   -0.3474884910    0.4821827956
H        0.1425630020    0.1822965531   -0.1146954189
H        0.0943201719    0.3599498172    2.3654000852
C        1.7699864762   -0.8345619914    4.1451889787
O        2.5399579867   -0.2183024690    4.8314923067
O        0.7111667335   -1.4888434474    4.6709636357
H        0.7857343833   -1.3482384023    5.6257618885
H        3.4961622865   -2.2446378182    2.6313886213
H        3.5494040546   -2.4346845213    0.1544804904
15   

H        1.9106464975   -1.2132796879   -1.2245240955
C        1.8684754276   -1.1259017604   -0.1423056337
C        2.7633789014   -1.8466282163    0.6560121891
C        2.7082077333   -1.7317931572    2.0510529156
C        1.7676188039   -0.9061614372    2.6526979286
C        0.8706339379   -0.1813077822    1.8528038287
C        0.9201931087   -0.2911094024    0.4579934396
H        0.2238368000    0.2723220108   -0.1565536967
H        0.1363160262    0.4686378451    2.3215827013
C        1.7235761227   -0.7864501195    4.1403386036
O        2.3327034541    0.0170083868    4.7929140153
O        0.9060191192   -1.6989714026    4.7090252652
H        0.9623960584   -1.5211175658    5.6587941576
H        3.4062956804   -2.2911159357    2.6686159134
H        3.5024428209   -2.4949347606    0.1939343845
15   

H        1.9514649966   -1.2011994317   -1.2237352178
C        1.8846903000   -1.1143214061   -0.1427152285
C        2.7255968607   -1.8757491088    0.6763720595
C        2.6387926198   -1.7617487095    2.0698606993
C        1.7112838138   -0.9050314319    2.6491887415
C        0.8813311215   -0.1260149230    1.8284329729
C        0.9626093470   -0.2353227386    0.4350647909
H        0.3135599133    0.3652819454   -0.1958566760
H        0.1751526351    0.5660348455    2.2801703141
C        1.6627618949   -0.7599451383    4.1322855712
O        2.0749866191    0.1840223909    4.7509295601
O        1.1553148130   -1.8515626829    4.7458396864
H        1.1933845753   -1.6420386920    5.6901003971
H        3.2972820025   -2.3501702284    2.7037195938
H        3.4482951393   -2.5539636961    0.2316806016
15   

H        1.9884390578   -1.1981663194   -1.2223627783
C        1.8991899437   -1.1130834871   -0.1428238023
C        2.6940578034   -1.9055251657    0.6924247563
C        2.5786775198   -1.7936236373    2.0840394834
C        1.6632464380   -0.9118247996    2.6466060274
C        0.8864811155   -0.0964131036    1.8086645174
C        0.9964016412   -0.2033858201    0.4171694013
H        0.3858390607    0.4242434748   -0.2257662957
H        0.1995396544    0.6233052533    2.2471979222
C        1.5962172013   -0.7529411735    4.1231769655
O        1.7812278409    0.2768966197    4.7161987547
O        1.3883483110   -1.9219429505    4.7700344934
H        1.3884966448   -1.6850540071    5.7086976626
H        3.2045983946   -2.4055511465    2.7287754689
H        3.4041944295   -2.6057712546    0.2618750180
15   

H        2.0149313955   -1.1944361173   -1.2224247802
C        1.9110672769   -1.1123790324   -0.1439589528
C        2.6681611838   -1.9321751411    0.6994125361
C        2.5343907127   -1.8244161650    2.0897965145
C        1.6372851376   -0.9181310888    2.6452160037
C        0.8985795992   -0.0768995779    1.7970061018
C        1.0272173104   -0.1795076105    0.4069586028
H        0.4454681288    0.4694566744   -0.2415052418
H        0.2252789067    0.6605290550    2.2278617755
C        1.5411137294   -0.7595713251    4.1160844188
O        1.4896788121    0.2955801061    4.6937603843
O        1.5887135114   -1.9344688435    4.7856508352
H        1.5334042683   -1.6844651179    5.7193955887
H        3.1353331544   -2.4599816099    2.7355714274
H        3.3639672278   -2.6510263926    0.2761816622
15   

H        2.0401963999   -1.1866169160   -1.2236655174
C        1.9256938825   -1.1083638954   -0.1459942869
C        2.6489175120   -1.9537233442    0.7011597303
C        2.5017324774   -1.8517468180    2.0907549812
C        1.6270710150   -0.9213588956    2.6441673895
C        0.9177712779   -0.0597307685    1.7893952716
C        1.0602961827   -0.1566434405    0.4005045036
H        0.5019774500    0.5104153304   -0.2502097455
H        0.2537896656    0.6897960344    2.2143288576
C        1.4956788248   -0.7734899047    4.1107672385
O        1.2113706235    0.2520767369    4.6764130352
O        1.7686317757   -1.9065710822    4.7996539386
H        1.6502065344   -1.6594069643    5.7283727276
H        3.0806726082   -2.5125272175    2.7312404932
H        3.3291004527   -2.6893796989    0.2814062329
15   

H        2.0648545473   -1.1740153031   -1.2244974999
C        1.9406966437   -1.1009768119   -0.1475280460
C        2.6308866379   -1.9717980448    0.7007474098
C        2.4713770199   -1.8775965807    2.0896518253
C        1.6211151905   -0.9241232014    2.6435138155
C        0.9377966484   -0.0436201570    1.7849997290
C        1.0931462939   -0.1330594125    0.3971575210
H        0.5565641773    0.5511416755   -0.2540590861
H        0.2815476882    0.7154938123    2.2051743133
C        1.4546560578   -0.7934231178    4.1070663019
O        0.9511230189    0.1524037904    4.6606374231
O        1.9392661994   -1.8416818012    4.8143221078
H        1.7607558727   -1.6121217282    5.7380120220
H        3.0265198266   -2.5652936534    2.7226411238
H        3.2946105476   -2.7230503066    0.2822494091
15   

H        2.1248479316   -1.0886097070   -1.2217068546
C        1.9689205268   -1.0630879236   -0.1466950721
C        3.0551203887   -1.1833803633    0.7247592598
C        2.8547364967   -1.1505359610    2.1112145931
C        1.5758198306   -0.9981885517    2.6410089043
C        0.4868535454   -0.8776673285    1.7576335782
C        0.6811191572   -0.9097913356    0.3722463152
H       -0.1692853383   -0.8155215074   -0.2971323512
H       -0.5184873205   -0.7580303598    2.1557491206
C        1.3386134267   -0.9604966406    4.0999134626
O        0.2563915372   -0.8311031359    4.6169866066
O        2.4596394784   -1.0856136599    4.8494203489
H        2.1436198268   -1.0425286557    5.7637993749
H        3.7224387009   -1.2469562409    2.7588657577
H        4.0585607819   -1.3027877519    0.3261256805
