15   

H        1.8845504494   -1.1969430102   -1.1372784034
C        1.8989898869   -1.1487041128   -0.0516632466
C        2.9606943071   -1.7129157353    0.6605966420
C        2.9827614624   -1.6485464045    2.0588610436
C        1.9377440248   -1.0271729181    2.7676298696
C        0.8788117379   -0.4511548325    2.0341131760
C        0.8609936700   -0.5146554090    0.6358222578
H        0.0426242801   -0.0637819589    0.0809006515
H        0.0688828630    0.0726118318    2.5337518485
C        1.9680883683   -0.9741836753    4.2380957310
O        2.9986688411   -1.1458666493    4.8281181973
O        0.8176975165   -0.7689074310    4.9117198680
H        0.0392111191   -0.8750488027    4.3499162352
H        3.8161069905   -2.0883349895    2.6032831500
H        3.7727972999   -2.2011725537    0.1291528985
15   

H        1.8838575441   -1.2620480515   -1.1393029618
C        1.8976849547   -1.2010762593   -0.0543360912
C        2.9498305149   -1.7725910188    0.6665708212
C        2.9717723075   -1.6906361858    2.0641067137
C        1.9363535492   -1.0425349987    2.7629711115
C        0.8871238129   -0.4605205054    2.0206801049
C        0.8687457868   -0.5425072574    0.6235513251
H        0.0577801600   -0.0857919660    0.0625791533
H        0.0864423014    0.0827227731    2.5151240646
C        1.9669687079   -0.9570535557    4.2318023284
O        2.9799005709   -1.1865343014    4.8318113293
O        0.8201727735   -0.6788308861    4.8963827097
H        0.0378198781   -0.9607343381    4.4072733019
H        3.7988991904   -2.1341970830    2.6148244667
H        3.7553463185   -2.2788899823    0.1420859786
15   

H        1.8962132676   -1.3110827242   -1.1454713416
C        1.9060713117   -1.2407521457   -0.0610534862
C        2.9502954590   -1.8145574813    0.6697486778
C        2.9674282374   -1.7197140608    2.0667230361
C        1.9353379610   -1.0548152425    2.7547447443
C        0.8937838962   -0.4722955278    2.0023865106
C        0.8797243385   -0.5676502960    0.6062416758
H        0.0743150398   -0.1095805368    0.0384479013
H        0.0956978742    0.0808675751    2.4904775459
C        1.9609905227   -0.9456727612    4.2222483695
O        2.9519553600   -1.2277853219    4.8353878664
O        0.8187513595   -0.5924102168    4.8733903761
H        0.0425735843   -1.0278828458    4.5047395272
H        3.7893205528   -2.1638251018    2.6246625934
H        3.7538639013   -2.3318122126    0.1531035781
15   

H        1.9225825979   -1.3320179556   -1.1567541897
C        1.9249407851   -1.2589448576   -0.0725086375
C        2.9612628714   -1.8351689212    0.6677657578
C        2.9685564357   -1.7365641332    2.0647266432
C        1.9348661132   -1.0640504805    2.7429804063
C        0.9008632722   -0.4808169305    1.9810175558
C        0.8962143378   -0.5802840578    0.5852458196
H        0.0958837953   -0.1213307490    0.0110794815
H        0.1002071698    0.0740126130    2.4632557380
C        1.9493342915   -0.9460609383    4.2102323805
O        2.9158055587   -1.2749738308    4.8379288803
O        0.8161862423   -0.5120029357    4.8460307092
H        0.0570692655   -1.0667189309    4.6424410287
H        3.7847168129   -2.1821510919    2.6297094973
H        3.7664442868   -2.3569450474    0.1583192975
15   

H        1.9623586897   -1.3202253877   -1.1735337114
C        1.9534607566   -1.2517164520   -0.0890633536
C        2.9811052295   -1.8322587236    0.6599906828
C        2.9731972910   -1.7400859606    2.0575024098
C        1.9333809307   -1.0684796468    2.7273796186
C        0.9078093470   -0.4822339293    1.9565328591
C        0.9179678749   -0.5755727954    0.5604673721
H        0.1229739830   -0.1147722290   -0.0195223738
H        0.1001778220    0.0668872346    2.4337810285
C        1.9291469593   -0.9584922434    4.1957048625
O        2.8728577852   -1.3252648400    4.8365564315
O        0.8133844471   -0.4410311361    4.8144917730
H        0.0849205742   -1.0676986832    4.8165559905
H        3.7823953786   -2.1896154234    2.6291745587
H        3.7910472740   -2.3527625059    0.1569251370
15   

H        2.0135780448   -1.2842099943   -1.1913346787
C        1.9897552623   -1.2268379404   -0.1064814941
C        3.0069955788   -1.8148007762    0.6509811851
C        2.9788252165   -1.7381262486    2.0492588082
C        1.9295942800   -1.0734407702    2.7115496283
C        0.9143350698   -0.4806531747    1.9320852499
C        0.9443224593   -0.5589255760    0.5354444254
H        0.1558154704   -0.0942174428   -0.0501720267
H        0.0967632688    0.0578889056    2.4044913351
C        1.8997871122   -0.9847514010    4.1816005266
O        2.8238530391   -1.3846174627    4.8327035659
O        0.8135777641   -0.3840208727    4.7813433930
H        0.1343895329   -1.0226726858    5.0130015120
H        3.7793507836   -2.1947319364    2.6273221614
H        3.8240421107   -2.3298577325    0.1539318933
15   

H        2.0656462021   -1.2478167533   -1.2061178816
C        2.0254507304   -1.2028352016   -0.1211972718
C        3.0322735435   -1.7973499272    0.6450307844
C        2.9820826830   -1.7377648607    2.0436073026
C        1.9215828452   -1.0825432190    2.6976598268
C        0.9166564944   -0.4839710925    1.9090680257
C        0.9682887523   -0.5455919888    0.5122917906
H        0.1863761796   -0.0775478885   -0.0794101545
H        0.0879575675    0.0426254027    2.3755856425
C        1.8644648008   -1.0160943889    4.1688027370
O        2.7728100942   -1.4446641856    4.8270544181
O        0.8118864082   -0.3497796604    4.7476219735
H        0.2118289264   -0.9483311713    5.2015783603
H        3.7740354889   -2.2007829019    2.6281720189
H        3.8578331317   -2.3050514497    0.1546201436
15   

H        2.1064428860   -1.2277837267   -1.2160938504
C        2.0513950341   -1.1922745412   -0.1314993656
C        3.0492073507   -1.7906797608    0.6434541026
C        2.9792481700   -1.7440915860    2.0417481735
C        1.9083706299   -1.0967997166    2.6869972787
C        0.9123010492   -0.4951399205    1.8893397395
C        0.9832784708   -0.5443384691    0.4929814678
H        0.2071123950   -0.0747695910   -0.1049985545
H        0.0737532095    0.0216050057    2.3493405975
C        1.8283881370   -1.0446122746    4.1582436765
O        2.7179718929   -1.5063816611    4.8231421996
O        0.8069430448   -0.3321011349    4.7179690519
H        0.3143682362   -0.8555188143    5.3592646619
H        3.7640090980   -2.2109506290    2.6327777672
H        3.8828269961   -2.2918211361    0.1600565034
15   

H        2.1402168370   -1.2149187683   -1.2221844672
C        2.0728490195   -1.1849120296   -0.1381351401
C        3.0675982259   -1.7773535117    0.6453726432
C        2.9815059309   -1.7380213453    2.0430607804
C        1.8972876262   -1.1039810389    2.6790793710
C        0.9039579405   -0.5092358846    1.8727610400
C        0.9912434932   -0.5507651819    0.4771381416
H        0.2166860796   -0.0866342784   -0.1271197771
H        0.0540726063   -0.0051808818    2.3261740394
C        1.7990648920   -1.0595077510    4.1496555281
O        2.6824298442   -1.5240885205    4.8235997111
O        0.7732368745   -0.3583201056    4.6950982431
H        0.4261107457   -0.8002211738    5.4800723659
H        3.7636247081   -2.2006913831    2.6407434527
H        3.9111013189   -2.2685763720    0.1690469711
15   

H        2.1602147985   -1.2026492475   -1.2262248968
C        2.0836572006   -1.1781759452   -0.1426555157
C        3.0758580684   -1.7675311386    0.6464472432
C        2.9776949510   -1.7355526615    2.0435566607
C        1.8839172402   -1.1118384197    2.6732783763
C        0.8928552371   -0.5209157922    1.8614180057
C        0.9922309207   -0.5549492330    0.4664183920
H        0.2190215509   -0.0940480489   -0.1420069284
H        0.0348178613   -0.0268460355    2.3105964330
C        1.7732870249   -1.0739648113    4.1431193128
O        2.6438235577   -1.5544947917    4.8245015410
O        0.7398915337   -0.3917709077    4.6809002893
H        0.5372040601   -0.7272520831    5.5655056809
H        3.7575446117   -2.1962094978    2.6456786834
H        3.9265160745   -2.2509408459    0.1749008921
15   

H        2.1791631243   -1.1887965098   -1.2286758807
C        2.0953858968   -1.1690425255   -0.1455495867
C        3.0881204654   -1.7517010742    0.6479197498
C        2.9804281736   -1.7260408455    2.0444825802
C        1.8763466254   -1.1156711443    2.6690369381
C        0.8844930385   -0.5320619842    1.8529606463
C        0.9936018607   -0.5593263608    0.4585647665
H        0.2194866352   -0.1043282839   -0.1531377806
H        0.0178627873   -0.0499574919    2.2987514231
C        1.7556122556   -1.0841983111    4.1380086188
O        2.6168413565   -1.5725990153    4.8267423208
O        0.6983528723   -0.4453050078    4.6712337923
H        0.6316876847   -0.6531752277    5.6154516743
H        3.7601813308   -2.1820483090    2.6502238846
H        3.9462745866   -2.2254189304    0.1801508751
15   

H        2.1947093385   -1.1718836172   -1.2287385044
C        2.1059432092   -1.1574054946   -0.1459279914
C        3.1015682714   -1.7322140467    0.6496835054
C        2.9872630188   -1.7136296569    2.0458506769
C        1.8733528718   -1.1187092220    2.6677265101
C        0.8783352581   -0.5435165436    1.8495569744
C        0.9943545983   -0.5631266199    0.4556079176
H        0.2175712078   -0.1149023763   -0.1577146583
H        0.0034070537   -0.0748169578    2.2934743172
C        1.7453914501   -1.0948628721    4.1361247707
O        2.6008503096   -1.5892390423    4.8282279659
O        0.6573532767   -0.5109993448    4.6661296362
H        0.6999540803   -0.5653297355    5.6333404788
H        3.7687562890   -2.1642674891    2.6533532371
H        3.9667852232   -2.1948490944    0.1838447078
15   

H        2.2007638010   -1.1496479444   -1.2274291562
C        2.1101986771   -1.1421949376   -0.1446947375
C        3.1110380930   -1.7101653017    0.6492426544
C        2.9942792765   -1.7009353918    2.0452820402
C        1.8724215542   -1.1227801672    2.6688101101
C        0.8718576971   -0.5549562920    1.8522307525
C        0.9906681757   -0.5646394756    0.4583949350
H        0.2094914648   -0.1224387209   -0.1537154152
H       -0.0100703512   -0.1005747659    2.2971380650
C        1.7418442730   -1.1091455964    4.1372136933
O        2.5956126918   -1.6110677238    4.8255151724
O        0.6233657383   -0.5811850372    4.6669061589
H        0.7381070498   -0.4603452269    5.6215966941
H        3.7794772101   -2.1470755420    2.6513377253
H        3.9819466783   -2.1607691197    0.1822102534
15   

H        2.2023027198   -1.1263742603   -1.2237943176
C        2.1115895830   -1.1275540246   -0.1410421054
C        3.1179341142   -1.6912764124    0.6488775102
C        3.0009058877   -1.6934858538    2.0448978788
C        1.8731154712   -1.1314116959    2.6726558106
C        0.8666664921   -0.5683750625    1.8599067811
C        0.9860212863   -0.5662017887    0.4660604929
H        0.2002411931   -0.1280826883   -0.1430908046
H       -0.0208903576   -0.1278024262    2.3073807279
C        1.7424952170   -1.1297652323    4.1413428617
O        2.5948125588   -1.6433128635    4.8216728059
O        0.5999815756   -0.6453155250    4.6728259354
H        0.7516274357   -0.3386777537    5.5778857632
H        3.7901918395   -2.1370411186    2.6475649080
H        3.9931449141   -2.1301898744    0.1787488187
15   

H        2.2019020585   -1.1031428667   -1.2186238126
C        2.1113980201   -1.1150608265   -0.1359102085
C        3.1218510357   -1.6790402768    0.6485063176
C        3.0050262741   -1.6953978710    2.0444201661
C        1.8734443973   -1.1471896605    2.6777021818
C        0.8624159217   -0.5845218930    1.8703599801
C        0.9816775143   -0.5681079606    0.4765831263
H        0.1923436783   -0.1307577792   -0.1285294616
H       -0.0293415880   -0.1563477693    2.3213538189
C        1.7438414781   -1.1595802722    4.1464666813
O        2.5896860048   -1.6921495693    4.8182448066
O        0.5891282398   -0.6919400859    4.6844710685
H        0.7563898927   -0.2017431636    5.4991409894
H        3.7973357183   -2.1395974434    2.6426930093
H        3.9999732349   -2.1075263797    0.1741809298
15   

H        2.1945889360   -1.0680398930   -1.2110054293
C        2.1059944773   -1.0933247282   -0.1283475600
C        3.1233626325   -1.6562882048    0.6477357284
C        3.0089990292   -1.6901709381    2.0434663471
C        1.8730779744   -1.1607547556    2.6849596954
C        0.8544999217   -0.5998876429    1.8860019195
C        0.9715605897   -0.5655729401    0.4923039510
H        0.1765958359   -0.1300733912   -0.1067619896
H       -0.0421177399   -0.1883804899    2.3426498116
C        1.7466703787   -1.1927006338    4.1535260743
O        2.5937320746   -1.7315294789    4.8159687824
O        0.5843146081   -0.7355471359    4.7051185344
H        0.7467312763   -0.0720023406    5.3842247046
H        3.8064456652   -2.1340390107    2.6352290155
H        4.0047908583   -2.0707879597    0.1670987817
15   

H        2.1894955785   -1.0233837652   -1.1989663542
C        2.1008103186   -1.0662764393   -0.1168448751
C        3.1199385599   -1.6384873821    0.6500956204
C        3.0051293631   -1.6960051192    2.0449420136
C        1.8677991739   -1.1800206851    2.6945572123
C        0.8468551034   -0.6104802401    1.9050387263
C        0.9641057604   -0.5531858673    0.5120504066
H        0.1671902613   -0.1123335895   -0.0805191787
H       -0.0530150880   -0.2128656915    2.3674463362
C        1.7415377547   -1.2388741136    4.1617086621
O        2.5707483659   -1.8108536126    4.8153960276
O        0.6010843426   -0.7318112742    4.7354542568
H        0.7746778590    0.0717176422    5.2340679807
H        3.8033452712   -2.1476702073    2.6298700889
H        4.0028045956   -2.0423341804    0.1629946116
15   

H        2.1920719184   -0.9607159203   -1.1810338387
C        2.1016509707   -1.0240398835   -0.1000252245
C        3.1210331117   -1.6081218604    0.6575605253
C        3.0035355708   -1.6933351316    2.0506814056
C        1.8639990318   -1.1923099311    2.7077595501
C        0.8421880776   -0.6113951942    1.9279177058
C        0.9619613910   -0.5269484726    0.5364600028
H        0.1641849225   -0.0790388338   -0.0496911614
H       -0.0619994743   -0.2298265902    2.3953244555
C        1.7335388424   -1.2860344471    4.1719997394
O        2.5470548902   -1.8862473052    4.8167177345
O        0.6300298214   -0.7166576198    4.7707461311
H        0.8013009899    0.1859379278    5.0515046476
H        3.8010783244   -2.1553470052    2.6285722016
H        4.0057512958   -2.0005378750    0.1644174295
15   

H        2.1947133424   -0.8991313874   -1.1601231379
C        2.1028535310   -0.9809748112   -0.0804416929
C        3.1217470650   -1.5773763224    0.6681073068
C        3.0019830709   -1.6879210613    2.0591622244
C        1.8614106891   -1.1989157729    2.7232232764
C        0.8393885688   -0.6062374549    1.9525812277
C        0.9613004728   -0.4970448945    0.5629666699
H        0.1632096814   -0.0418569611   -0.0172019177
H       -0.0685719440   -0.2389431022    2.4240375404
C        1.7266404034   -1.3255009760    4.1840133022
O        2.5229630600   -1.9593881536    4.8163580767
O        0.6772146513   -0.6878127990    4.8066287795
H        0.8182109921    0.2612737249    4.8588856084
H        3.7983487955   -2.1607067408    2.6300936293
H        4.0074439460   -1.9605890508    0.1694147373
15   

H        2.1830113040   -0.8600668872   -1.1417205767
C        2.0933067502   -0.9538388178   -0.0627888899
C        3.1134251184   -1.5594264131    0.6765525708
C        2.9963525417   -1.6862098063    2.0663352498
C        1.8580493931   -1.2032880175    2.7385488771
C        0.8338263836   -0.6023330852    1.9771474921
C        0.9530083220   -0.4773821004    0.5885233773
H        0.1534687308   -0.0169975665    0.0144008973
H       -0.0753773516   -0.2442251413    2.4531166017
C        1.7265273604   -1.3498802070    4.1973750642
O        2.5033872645   -2.0224477502    4.8141403649
O        0.7378355067   -0.6540096401    4.8415042669
H        0.8071218129    0.2927487769    4.6857321843
H        3.7932881315   -2.1666368511    2.6302099068
H        3.9978342578   -1.9376170242    0.1716808374
15   

H        2.1509383566   -0.8494501189   -1.1307654967
C        2.0675453869   -0.9481168440   -0.0517306720
C        3.0900781787   -1.5612323175    0.6778202354
C        2.9814289804   -1.6943415966    2.0675336832
C        1.8501613454   -1.2091810243    2.7498293845
C        0.8222670540   -0.6019068449    1.9982587373
C        0.9329659730   -0.4711637937    0.6093157422
H        0.1313006099   -0.0063097813    0.0417373678
H       -0.0843083610   -0.2453583705    2.4800862428
C        1.7320711998   -1.3605416134    4.2090352845
O        2.4827789562   -2.0780719343    4.8083070248
O        0.8064597221   -0.6146808271    4.8726823357
H        0.7703691066    0.2911116053    4.5467541279
H        3.7803545516   -2.1800744771    2.6241481246
H        3.9699929545   -1.9401252699    0.1655830072
15   

H        2.1027273209   -0.8653923764   -1.1266681739
C        2.0293486742   -0.9624628277   -0.0467354149
C        3.0544375450   -1.5830116171    0.6726102431
C        2.9592341613   -1.7133573325    2.0633837284
C        1.8400988411   -1.2169748129    2.7574148073
C        0.8082657380   -0.6034332328    2.0161274297
C        0.9053865674   -0.4761030575    0.6256659993
H        0.1017182714   -0.0061634522    0.0651145578
H       -0.0914795574   -0.2397226836    2.5048523226
C        1.7446223341   -1.3600076061    4.2189671693
O        2.4629092781   -2.1234719283    4.8019672369
O        0.8796570551   -0.5710231832    4.8998162704
H        0.7137027303    0.2641688277    4.4462888539
H        3.7606815952   -2.2034564691    2.6126195985
H        3.9263407935   -1.9689972675    0.1519582440
15   

H        2.0480123435   -0.9007166183   -1.1278406675
C        1.9857053605   -0.9915616797   -0.0466557696
C        3.0099526557   -1.6236544760    0.6634438247
C        2.9296608708   -1.7447855615    2.0557994950
C        1.8277309172   -1.2265521876    2.7612809660
C        0.7955547002   -0.6020465370    2.0293068651
C        0.8773799003   -0.4849682854    0.6367679672
H        0.0745374504   -0.0059571542    0.0827411957
H       -0.0928004331   -0.2204100491    2.5244168126
C        1.7595309640   -1.3521489483    4.2260582469
O        2.4386431647   -2.1607922615    4.7957947108
O        0.9540667574   -0.5217591351    4.9195930511
H        0.6435555903    0.2202057428    4.3848023805
H        3.7314061316   -2.2418413143    2.5983990764
H        3.8703064997   -2.0244680195    0.1347868458
15   

H        1.9918047907   -0.9392893795   -1.1330642826
C        1.9428150485   -1.0198650137   -0.0503758754
C        2.9616923796   -1.6703988158    0.6501090939
C        2.8991584147   -1.7770377821    2.0443390571
C        1.8214333276   -1.2257551763    2.7626955976
C        0.7944372851   -0.5812670391    2.0399376651
C        0.8580652685   -0.4798228949    0.6450004555
H        0.0601787869    0.0153310746    0.0980742993
H       -0.0754921177   -0.1674556855    2.5406458051
C        1.7842871622   -1.3319355372    4.2312349782
O        2.4463606446   -2.1623385220    4.7902618717
O        1.0071228433   -0.4880721497    4.9361936299
H        0.5258446077    0.1308077647    4.3713537733
H        3.6984652400   -2.2865930519    2.5789412405
H        3.8049808317   -2.0954933325    0.1129580288
