15   

H        1.8845501438   -1.1969428527   -1.1372784180
C        1.8989896633   -1.1487039652   -0.0516632612
C        2.9606941704   -1.7129155282    0.6605965510
C        2.9827614192   -1.6485462247    2.0588609584
C        1.9377439899   -1.0271728160    2.7676298619
C        0.8788116217   -0.4511547717    2.0341132456
C        0.8609934549   -0.5146553394    0.6358223262
H        0.0426239827   -0.0637819496    0.0809007914
H        0.0688827476    0.0726118350    2.5337519739
C        1.9680883683   -0.9741836753    4.2380957310
O        2.9986688411   -1.1458666493    4.8281181973
O        0.8176975165   -0.7689074310    4.9117198680
H        0.0392111191   -0.8750488027    4.3499162352
H        3.8161070000   -2.0883347880    2.6032829996
H        3.7727971478   -2.2011722951    0.1291527393
15   

H        1.8838574856   -1.2620479337   -1.1393029575
C        1.8976849213   -1.2010761336   -0.0543360888
C        2.9498304813   -1.7725909208    0.6665708010
C        2.9717723032   -1.6906360822    2.0641066905
C        1.9363535681   -1.0425348818    2.7629711069
C        0.8871238374   -0.4605203547    2.0206801244
C        0.8687457866   -0.5425070964    0.6235513449
H        0.0577801618   -0.0857917783    0.0625791920
H        0.0864423416    0.0827229269    2.5151241065
C        1.9669687079   -0.9570535557    4.2318023284
O        2.9799005709   -1.1865343014    4.8318113293
O        0.8201727735   -0.6788308861    4.8963827097
H        0.0378198781   -0.9607343381    4.4072733019
H        3.7988991782   -2.1341970054    2.6148244322
H        3.7553462569   -2.2788899173    0.1420859469
15   

H        1.8962136402   -1.3110819844   -1.1454714100
C        1.9060716082   -1.2407515346   -0.0610535469
C        2.9502957292   -1.8145569229    0.6697486087
C        2.9674284101   -1.7197136804    2.0667229798
C        1.9353380659   -1.0548149900    2.7547447137
C        0.8937840253   -0.4722952244    2.0023864840
C        0.8797245639   -0.5676498104    0.6062416322
H        0.0743152872   -0.1095800083    0.0384478578
H        0.0956979443    0.0808677693    2.4904775410
C        1.9609905227   -0.9456727612    4.2222483695
O        2.9519553600   -1.2277853219    4.8353878664
O        0.8187513595   -0.5924102168    4.8733903761
H        0.0425735843   -1.0278828458    4.5047395272
H        3.7893206952   -2.1638247836    2.6246625293
H        3.7538642154   -2.3318115699    0.1531034914
15   

H        1.9225824575   -1.3320177473   -1.1567541941
C        1.9249406875   -1.2589446734   -0.0725086427
C        2.9612627446   -1.8351688485    0.6677657054
C        2.9685563551   -1.7365640976    2.0647265916
C        1.9348661142   -1.0640503693    2.7429803986
C        0.9008633059   -0.4808167048    1.9810175922
C        0.8962143192   -0.5802837970    0.5852458555
H        0.0958837937   -0.1213304105    0.0110795553
H        0.1002072625    0.0740128845    2.4632558166
C        1.9493342915   -0.9460609383    4.2102323805
O        2.9158055587   -1.2749738308    4.8379288803
O        0.8161862423   -0.5120029357    4.8460307092
H        0.0570692655   -1.0667189309    4.6424410287
H        3.7847166966   -2.1821511596    2.6297094119
H        3.7664440950   -2.3569450359    0.1583192042
15   

H        1.9623587078   -1.3202255282   -1.1735336973
C        1.9534607758   -1.2517165492   -0.0890633441
C        2.9811051888   -1.8322588913    0.6599907175
C        2.9731972510   -1.7400860760    2.0575024388
C        1.9333809498   -1.0684796443    2.7273796182
C        0.9078094332   -0.4822338473    1.9565328322
C        0.9179679574   -0.5755727665    0.5604673490
H        0.1229741093   -0.1147721561   -0.0195224233
H        0.1001779600    0.0668874120    2.4337809770
C        1.9291469593   -0.9584922434    4.1957048625
O        2.8728577852   -1.3252648400    4.8365564315
O        0.8133844471   -0.4410311361    4.8144917730
H        0.0849205742   -1.0676986832    4.8165559905
H        3.7823952894   -2.1896155980    2.6291746102
H        3.7910471881   -2.3527627688    0.1569251967
15   

H        2.0135778243   -1.2842102755   -1.1913346551
C        1.9897550845   -1.2268381736   -0.1064814748
C        3.0069954157   -1.8148009999    0.6509811903
C        2.9788251098   -1.7381263997    2.0492588099
C        1.9295942218   -1.0734408540    2.7115496351
C        0.9143349792   -0.4806532951    1.9320852701
C        0.9443223120   -0.5589257684    0.5354444526
H        0.1558153000   -0.0942176608   -0.0501719908
H        0.0967631957    0.0578888082    2.4044913618
C        1.8997871122   -0.9847514010    4.1816005266
O        2.8238530391   -1.3846174627    4.8327035659
O        0.8135777641   -0.3840208727    4.7813433930
H        0.1343895329   -1.0226726858    5.0130015120
H        3.7793506808   -2.1947320946    2.6273221527
H        3.8240419075   -2.3298580093    0.1539318857
15   

H        2.0656467301   -1.2478164316   -1.2061178822
C        2.0254511479   -1.2028349413   -0.1211972741
C        3.0322739433   -1.7973496102    0.6450308449
C        2.9820829380   -1.7377646273    2.0436073598
C        1.9215829748   -1.0825431235    2.6976598253
C        0.9166566394   -0.4839710598    1.9090679635
C        0.9682890481   -0.5455918659    0.5122917281
H        0.1863765029   -0.0775477959   -0.0794102750
H        0.0879576120    0.0426253170    2.3755855333
C        1.8644648008   -1.0160943889    4.1688027370
O        2.7728100942   -1.4446641856    4.8270544181
O        0.8118864082   -0.3497796604    4.7476219735
H        0.2118289264   -0.9483311713    5.2015783603
H        3.7740357336   -2.2007826325    2.6281721186
H        3.8578336308   -2.3050510251    0.1546202609
15   

H        2.1064431985   -1.2277835174   -1.2160938357
C        2.0513952886   -1.1922743563   -0.1314993526
C        3.0492076862   -1.7906793966    0.6434541485
C        2.9792484293   -1.7440912644    2.0417482151
C        1.9083707286   -1.0967996228    2.6869972840
C        0.9123010604   -0.4951400176    1.8893397148
C        0.9832785709   -0.5443385013    0.4929814455
H        0.2071124438   -0.0747697394   -0.1049986018
H        0.0737530792    0.0216046970    2.3493405536
C        1.8283881370   -1.0446122746    4.1582436765
O        2.7179718929   -1.5063816611    4.8231421996
O        0.8069430448   -0.3321011349    4.7179690519
H        0.3143682362   -0.8555188143    5.3592646619
H        3.7640094121   -2.2109501854    2.6327778347
H        3.8828274453   -2.2918206133    0.1600565809
15   

H        2.1402172379   -1.2149181610   -1.2221844579
C        2.0728493557   -1.1849115116   -0.1381351324
C        3.0675985156   -1.7773530616    0.6453726578
C        2.9815061311   -1.7380210240    2.0430607911
C        1.8972877761   -1.1039807961    2.6790793740
C        0.9039581485   -0.5092355511    1.8727610365
C        0.9912437949   -0.5507647143    0.4771381401
H        0.2166864254   -0.0866337486   -0.1271197867
H        0.0540727826   -0.0051805914    2.3261740278
C        1.7990648920   -1.0595077510    4.1496555281
O        2.6824298442   -1.5240885205    4.8235997111
O        0.7732368745   -0.3583201056    4.6950982431
H        0.4261107457   -0.8002211738    5.4800723659
H        3.7636248637   -2.2006911286    2.6407434704
H        3.9111016306   -2.2685758942    0.1690469963
15   

H        2.1602149891   -1.2026489957   -1.2262249044
C        2.0836573502   -1.1781757485   -0.1426555251
C        3.0758581602   -1.7675310285    0.6464472382
C        2.9776949970   -1.7355526109    2.0435566566
C        1.8839173025   -1.1118383305    2.6732783703
C        0.8928553432   -0.5209156391    1.8614179888
C        0.9922310727   -0.5549490249    0.4664183750
H        0.2190217395   -0.0940477909   -0.1420069545
H        0.0348179616   -0.0268458832    2.3105964073
C        1.7732870249   -1.0739648113    4.1431193128
O        2.6438235577   -1.5544947917    4.8245015410
O        0.7398915337   -0.3917709077    4.6809002893
H        0.5372040601   -0.7272520831    5.5655056809
H        3.7575446033   -2.1962095410    2.6456786765
H        3.9265161478   -2.2509407621    0.1749008789
15   

H        2.1791633550   -1.1887959302   -1.2286758784
C        2.0953860887   -1.1690420567   -0.1455495847
C        3.0881206577   -1.7517006327    0.6479197345
C        2.9804283110   -1.7260405559    2.0444825657
C        1.8763467039   -1.1156709762    2.6690369393
C        0.8844931217   -0.5320617777    1.8529606633
C        0.9936020002   -0.5593260030    0.4585647851
H        0.2194867789   -0.1043278948   -0.1531377455
H        0.0178628261   -0.0499573726    2.2987514504
C        1.7556122556   -1.0841983111    4.1380086188
O        2.6168413565   -1.5725990153    4.8267423208
O        0.6983528723   -0.4453050078    4.6712337923
H        0.6316876847   -0.6531752277    5.6154516743
H        3.7601814711   -2.1820480413    2.6502238533
H        3.9462748228   -2.2254183892    0.1801508410
15   

H        2.1947093563   -1.1718835875   -1.2287385113
C        2.1059432198   -1.1574054732   -0.1459279994
C        3.1015682945   -1.7322139999    0.6496834965
C        2.9872630333   -1.7136296124    2.0458506666
C        1.8733528695   -1.1187092115    2.6677265044
C        0.8783352436   -0.5435165550    1.8495569663
C        0.9943545913   -0.5631266298    0.4556079094
H        0.2175711938   -0.1149024062   -0.1577146706
H        0.0034070258   -0.0748169848    2.2934743025
C        1.7453914501   -1.0948628721    4.1361247707
O        2.6008503096   -1.5892390423    4.8282279659
O        0.6573532767   -0.5109993448    4.6661296362
H        0.6999540803   -0.5653297355    5.6333404788
H        3.7687563161   -2.1642674172    2.6533532273
H        3.9667852629   -2.1948490227    0.1838447015
15   

H        2.2007632042   -1.1496484740   -1.2274292082
C        2.1101982097   -1.1421953615   -0.1446947781
C        3.1110376092   -1.7101658506    0.6492425489
C        2.9942789572   -1.7009358074    2.0452819512
C        1.8724214127   -1.1227803220    2.6688100985
C        0.8718575771   -0.5549563086    1.8522308053
C        0.9906678948   -0.5646396243    0.4583949762
H        0.2094912072   -0.1224387459   -0.1537153138
H       -0.0100703242   -0.1005745532    2.2971381796
C        1.7418442730   -1.1091455964    4.1372136933
O        2.5956126918   -1.6110677238    4.8255151724
O        0.6233657383   -0.5811850372    4.6669061589
H        0.7381070498   -0.4603452269    5.6215966941
H        3.7794768823   -2.1470760500    2.6513375818
H        3.9819460580   -2.1607698567    0.1822100771
15   

H        2.2023023295   -1.1263746821   -1.2237943473
C        2.1115892651   -1.1275543869   -0.1410421289
C        3.1179338441   -1.6912767402    0.6488774559
C        3.0009057229   -1.6934860742    2.0448978350
C        1.8731153529   -1.1314118654    2.6726558020
C        0.8666663199   -0.5683752781    1.8599068018
C        0.9860210191   -0.5662020931    0.4660605077
H        0.2002409024   -0.1280829974   -0.1430907648
H       -0.0208904880   -0.1278025790    2.3073807729
C        1.7424952170   -1.1297652323    4.1413428617
O        2.5948125588   -1.6433128635    4.8216728059
O        0.5999815756   -0.6453155250    4.6728259354
H        0.7516274357   -0.3386777537    5.5778857632
H        3.7901917190   -2.1370412873    2.6475648471
H        3.9931446001   -2.1301902572    0.1787487347
15   

H        2.2019019966   -1.1031435055   -1.2186238403
C        2.1113979368   -1.1150613809   -0.1359102360
C        3.1218509352   -1.6790407770    0.6485063441
C        3.0050261711   -1.6953982310    2.0444201922
C        1.8734443104   -1.1471899262    2.6777021657
C        0.8624158240   -0.5845222588    1.8703599075
C        0.9816774259   -0.5681084655    0.4765830485
H        0.1923436052   -0.1307583333   -0.1285295917
H       -0.0293416813   -0.1563480785    2.3213537060
C        1.7438414781   -1.1595802722    4.1464666813
O        2.5896860048   -1.6921495693    4.8182448066
O        0.5891282398   -0.6919400859    4.6844710685
H        0.7563898927   -0.2017431636    5.4991409894
H        3.7973356132   -2.1395977598    2.6426930683
H        3.9999731260   -2.1075269456    0.1741809995
15   

H        2.1945883787   -1.0680404287   -1.2110055045
C        2.1059940394   -1.0933251648   -0.1283476220
C        3.1233622758   -1.6562885590    0.6477356206
C        3.0089988143   -1.6901711682    2.0434662581
C        1.8730778208   -1.1607549412    2.6849596708
C        0.8544996880   -0.5998879068    1.8860019346
C        0.9715602150   -0.5655733247    0.4923039512
H        0.1765954031   -0.1300738252   -0.1067619485
H       -0.0421179297   -0.1883807094    2.3426498709
C        1.7466703787   -1.1927006338    4.1535260743
O        2.5937320746   -1.7315294789    4.8159687824
O        0.5843146081   -0.7355471359    4.7051185344
H        0.7467312763   -0.0720023406    5.3842247046
H        3.8064455144   -2.1340391688    2.6352288911
H        4.0047904545   -2.0707883417    0.1670986157
15   

H        2.1894951512   -1.0233844940   -1.1989664321
C        2.1008099945   -1.0662769944   -0.1168449361
C        3.1199382784   -1.6384878688    0.6500955544
C        3.0051291946   -1.6960054117    2.0449419677
C        1.8677990760   -1.1800208529    2.6945571923
C        0.8468549777   -0.6104804467    1.9050387115
C        0.9641055219   -0.5531862671    0.5120503736
H        0.1671899965   -0.1123340231   -0.0805192015
H       -0.0530151532   -0.2128657837    2.3674463429
C        1.7415377547   -1.2388741136    4.1617086621
O        2.5707483659   -1.8108536126    4.8153960276
O        0.6010843426   -0.7318112742    4.7354542568
H        0.7746778590    0.0717176422    5.2340679807
H        3.8033451322   -2.1476704574    2.6298700364
H        4.0028042522   -2.0423347721    0.1629945217
15   

H        2.1920718011   -0.9607162559   -1.1810338729
C        2.1016508913   -1.0240401287   -0.1000252488
C        3.1210330359   -1.6081220835    0.6575605146
C        3.0035355275   -1.6933352711    2.0506814048
C        1.8639990146   -1.1923099979    2.7077595455
C        0.8421880679   -0.6113952626    1.9279176924
C        0.9619613512   -0.5269486282    0.5364599817
H        0.1641848825   -0.0790389941   -0.0496911839
H       -0.0619994615   -0.2298266032    2.3953244418
C        1.7335388424   -1.2860344471    4.1719997394
O        2.5470548902   -1.8862473052    4.8167177345
O        0.6300298214   -0.7166576198    4.7707461311
H        0.8013009899    0.1859379278    5.0515046476
H        3.8010782792   -2.1553471418    2.6285722098
H        4.0057511942   -2.0005381498    0.1644174143
15   

H        2.1947132561   -0.8991312892   -1.1601231444
C        2.1028534614   -0.9809747499   -0.0804417012
C        3.1217469624   -1.5773763694    0.6681072623
C        3.0019829897   -1.6879211419    2.0591621826
C        1.8614106604   -1.1989157821    2.7232232716
C        0.8393885721   -0.6062373628    1.9525812625
C        0.9613004568   -0.4970447608    0.5629667057
H        0.1632096929   -0.0418567314   -0.0172018409
H       -0.0685718991   -0.2389429504    2.4240376082
C        1.7266404034   -1.3255009760    4.1840133022
O        2.5229630600   -1.9593881536    4.8163580767
O        0.6772146513   -0.6878127990    4.8066287795
H        0.8182109921    0.2612737249    4.8588856084
H        3.7983486903   -2.1607068931    2.6300935602
H        4.0074438059   -1.9605891439    0.1694146640
15   

H        2.1830109289   -0.8600669513   -1.1417206143
C        2.0933064545   -0.9538388775   -0.0627889205
C        3.1134248784   -1.5594264618    0.6765524764
C        2.9963523912   -1.6862098638    2.0663351637
C        1.8580492809   -1.2032880873    2.7385488608
C        0.8338262194   -0.6023331598    1.9771475401
C        0.9530080667   -0.4773821662    0.5885234210
H        0.1534684330   -0.0169976285    0.0144010029
H       -0.0753774863   -0.2442252171    2.4531167070
C        1.7265273604   -1.3498802070    4.1973750642
O        2.5033872645   -2.0224477502    4.8141403649
O        0.7378355067   -0.6540096401    4.8415042669
H        0.8071218129    0.2927487769    4.6857321843
H        3.7932880237   -2.1666368941    2.6302097731
H        3.9978339934   -1.9376170537    0.1716806857
15   

H        2.1509380053   -0.8494504579   -1.1307655502
C        2.0675450960   -0.9481171405   -0.0517307165
C        3.0900779195   -1.5612325963    0.6778201638
C        2.9814288092   -1.6943417970    2.0675336246
C        1.8501612195   -1.2091811714    2.7498293643
C        0.8222668945   -0.6019070116    1.9982587496
C        0.9329657294   -0.4711640385    0.6093157426
H        0.1313003341   -0.0063100447    0.0417373981
H       -0.0843084772   -0.2453584821    2.4800862958
C        1.7320711998   -1.3605416134    4.2090352845
O        2.4827789562   -2.0780719343    4.8083070248
O        0.8064597221   -0.6146808271    4.8726823357
H        0.7703691066    0.2911116053    4.5467541279
H        3.7803544264   -2.1800746274    2.6241480465
H        3.9699926669   -1.9401255780    0.1655829088
15   

H        2.1027266122   -0.8653926418   -1.1266682635
C        2.0293481059   -0.9624630682   -0.0467354902
C        3.0544370539   -1.5830118591    0.6726100614
C        2.9592338504   -1.7133575264    2.0633835691
C        1.8400986276   -1.2169749595    2.7574147751
C        0.8082654348   -0.6034333988    2.0161275019
C        0.9053860934   -0.4761032617    0.6256660562
H        0.1017177371   -0.0061636490    0.0651147086
H       -0.0914797960   -0.2397228175    2.5048524956
C        1.7446223341   -1.3600076061    4.2189671693
O        2.4629092781   -2.1234719283    4.8019672369
O        0.8796570551   -0.5710231832    4.8998162704
H        0.7137027303    0.2641688277    4.4462888539
H        3.7606813500   -2.2034566537    2.6126193549
H        3.9263402216   -1.9689975444    0.1519579527
15   

H        2.0480121815   -0.9007167996   -1.1278406888
C        1.9857052280   -0.9915618359   -0.0466557887
C        3.0099525781   -1.6236545469    0.6634438034
C        2.9296608240   -1.7447855920    2.0557994775
C        1.8277308553   -1.2265522628    2.7612809559
C        0.7955545888   -0.6020467009    2.0293068578
C        0.8773797487   -0.4849684925    0.6367679547
H        0.0745372553   -0.0059574291    0.0827411880
H       -0.0928005471   -0.2204102428    2.5244168185
C        1.7595309640   -1.3521489483    4.2260582469
O        2.4386431647   -2.1607922615    4.7957947108
O        0.9540667574   -0.5217591351    4.9195930511
H        0.6435555903    0.2202057428    4.3848023805
H        3.7314061260   -2.2418412730    2.5983990598
H        3.8703064412   -2.0244680579    0.1347868300
15   

H        1.9918049852   -0.9392895086   -1.1330642799
C        1.9428152007   -1.0198651207   -0.0503758736
C        2.9616925956   -1.6703987444    0.6501091667
C        2.8991585741   -1.7770376681    2.0443391287
C        1.8214333687   -1.2257552011    2.7626955977
C        0.7944372601   -0.5812672524    2.0399375959
C        0.8580652980   -0.4798231520    0.6450003830
H        0.0601787645    0.0153306630    0.0980741626
H       -0.0754922304   -0.1674560277    2.5406456881
C        1.7842871622   -1.3319355372    4.2312349782
O        2.4463606446   -2.1623385220    4.7902618717
O        1.0071228433   -0.4880721497    4.9361936299
H        0.5258446077    0.1308077647    4.3713537733
H        3.6984654491   -2.2865927980    2.5789413694
H        3.8049811388   -2.0954931581    0.1129581623
