6    

H       -0.5839820568   -0.0616278176   -0.7587320242
C        0.0265059673    0.3286329349    0.0624006965
H       -0.6529549711    0.6940723976    0.8397174577
O        0.8557889299   -0.6603361629    0.5687624673
H        0.3697193641   -1.4836917489    0.6802303178
Br       1.1586915796    1.7754620708   -0.5756472037
6    

H       -0.5824348176   -0.0853541845   -0.7305227205
C        0.0176068155    0.3321313926    0.0848333523
H       -0.6662959858    0.7412221737    0.8361003835
O        0.8212929711   -0.6421280780    0.6507245824
H        0.4136821729   -1.5103742030    0.5776212171
Br       1.1692769711    1.7554480840   -0.6005019863
6    

H       -0.5903628204   -0.1047995257   -0.7070175143
C        0.0036063445    0.3310030749    0.1031336618
H       -0.6797374744    0.7866909756    0.8276298917
O        0.7673522067   -0.6344618439    0.7259357844
H        0.4809464643   -1.5203883071    0.4858342521
Br       1.1874073467    1.7302178679   -0.6185521633
6    

H       -0.6085237255   -0.1184888593   -0.6874461907
C       -0.0146778335    0.3262494777    0.1179106011
H       -0.6935525398    0.8253640229    0.8175763725
O        0.6999665310   -0.6364018102    0.7873007636
H        0.5667291852   -1.5107505104    0.4089978283
Br       1.2109381148    1.6979772278   -0.6321342789
6    

H       -0.2609460551   -0.1099417715   -0.9365258947
C       -0.0530068624    0.2861478884    0.0629533344
H       -0.9943673369    0.6312700790    0.5037017948
O        0.4857228643   -0.6808204081    0.8633352535
H        0.8221988197   -1.4253920060    0.3532513752
Br       1.1653800933    1.8663572854   -0.0828251648
6    

H       -0.2894392475   -0.1082255559   -0.9393958477
C       -0.0763870936    0.2780318145    0.0628924880
H       -1.0095389969    0.6555494700    0.4944519767
O        0.4121303314   -0.7123610297    0.8589668526
H        0.9225117354   -1.3576735053    0.3551127491
Br       1.2029446674    1.8166542677   -0.0823387185
6    

H       -0.3230439790   -0.0950192211   -0.9462612947
C       -0.0986843349    0.2718448672    0.0608848946
H       -1.0205286965    0.6750312578    0.4935327754
O        0.3506349801   -0.7494746197    0.8376581246
H        1.0134388172   -1.2794658174    0.3760676553
Br       1.2388736074    1.7587335944   -0.0823001346
6    

H       -0.3623287589   -0.0693479353   -0.9565092844
C       -0.1171924212    0.2683668356    0.0560238990
H       -1.0241663327    0.6905035933    0.5018267060
O        0.3026500753   -0.7917456530    0.8006290524
H        1.0910032222   -1.1983819384    0.4167365848
Br       1.2697432603    1.6981847423   -0.0830490317
6    

H       -0.4096050681   -0.0351622166   -0.9680395103
C       -0.1308747877    0.2646684233    0.0477614473
H       -1.0193934134    0.6968278569    0.5203177070
O        0.2692542623   -0.8380401857    0.7477081564
H        1.1518012016   -1.1233807069    0.4773341183
Br       1.2926174216    1.6446482092   -0.0870725631
6    

H       -0.4629529952    0.0076041893   -0.9791146770
C       -0.1379202271    0.2621609083    0.0353002704
H       -1.0040126548    0.6949696866    0.5472447746
O        0.2513387554   -0.8849762839    0.6811041859
H        1.1919756744   -1.0600821392    0.5556259292
Br       1.3067299337    1.6027725353   -0.0941469222
6    

H       -0.5179448750    0.0531099927   -0.9878909627
C       -0.1394461515    0.2585205691    0.0191075890
H       -0.9791607345    0.6819494284    0.5804481918
O        0.2490553683   -0.9282219899    0.6033881813
H        1.2083814522   -1.0099822520    0.6461968028
Br       1.3139865548    1.5763468926   -0.1037999700
6    

H       -0.5683648170    0.0955158117   -0.9931116782
C       -0.1369423178    0.2528388716    0.0011881002
H       -0.9457206888    0.6582380968    0.6184700740
O        0.2623554178   -0.9632881261    0.5193244349
H        1.1995706802   -0.9710181467    0.7414743083
Br       1.3173629474    1.5651724938   -0.1165163957
6    

H       -0.6108138754    0.1315364827   -0.9936915318
C       -0.1313884678    0.2461613851   -0.0156689050
H       -0.9039206954    0.6281491931    0.6601862174
O        0.2892211148   -0.9870997005    0.4346908973
H        1.1649078092   -0.9434950191    0.8348089703
Br       1.3201677998    1.5664709752   -0.1340668405
6    

H       -0.6448874165    0.1580078896   -0.9879980278
C       -0.1230715823    0.2396502919   -0.0285349156
H       -0.8567896890    0.5946144337    0.7029985951
O        0.3282462997   -0.9985999640    0.3556470561
H        1.1071360904   -0.9316587934    0.9213806572
Br       1.3210540778    1.5806252183   -0.1596583155
6    

H       -0.6694392914    0.1733892406   -0.9762627934
C       -0.1113872168    0.2352533965   -0.0358973131
H       -0.8098011686    0.5616664453    0.7419928007
O        0.3774350281   -0.9984456838    0.2882830578
H        1.0308205092   -0.9410299855    0.9976488602
Br       1.3169336847    1.6075746076   -0.1952333407
6    

H       -0.6822609824    0.1782632677   -0.9609586160
C       -0.0951204216    0.2348364147   -0.0381330478
H       -0.7667982347    0.5339661944    0.7734932646
O        0.4350534840   -0.9885876171    0.2371669014
H        0.9413891649   -0.9733144171    1.0604121375
Br       1.3051297936    1.6446851914   -0.2392665551
6    

H       -0.6841541881    0.1718287764   -0.9450132168
C       -0.0759810870    0.2376205688   -0.0365323941
H       -0.7309088959    0.5133391185    0.7967255538
O        0.4992795391   -0.9702849559    0.2051087478
H        0.8434556474   -1.0239495674    1.1061796402
Br       1.2858670524    1.6876943998   -0.2876829556
6    

H       -0.6765163401    0.1573734272   -0.9297194634
C       -0.0541035143    0.2444418254   -0.0327484379
H       -0.6995259975    0.5034823548    0.8131213593
O        0.5686652282   -0.9449394665    0.1926044476
H        0.7418319019   -1.0861820341    1.1311410242
Br       1.2612784149    1.7286160395   -0.3363304650
6    

H       -0.6624352831    0.1347548310   -0.9157424707
C       -0.0317514077    0.2540993244   -0.0283176442
H       -0.6727788854    0.5043923016    0.8234579486
O        0.6415120808   -0.9122691955    0.2000685532
H        0.6407428297   -1.1527422561    1.1327858300
Br       1.2338911660    1.7630614695   -0.3804350573
6    

H       -0.6459733063    0.1061188075   -0.9008560275
C       -0.0106182736    0.2672342124   -0.0234255766
H       -0.6501429588    0.5179192345    0.8293404405
O        0.7145065452   -0.8715399421    0.2273489730
H        0.5460383080   -1.2178260418    1.1088566386
Br       1.2066279175    1.7868277891   -0.4178072392
6    

H       -0.6319419418    0.0715313423   -0.8801244585
C        0.0070418498    0.2813309860   -0.0157236117
H       -0.6332385877    0.5414029612    0.8336712921
O        0.7794815098   -0.8248474683    0.2724918507
H        0.4640668712   -1.2806980957    1.0581460728
Br       1.1837256052    1.7998394336   -0.4510328176
6    

H       -0.6196011472    0.0344185534   -0.8526063706
C        0.0202152108    0.2955345926   -0.0029394281
H       -0.6254094747    0.5723404470    0.8371182921
O        0.8292244082   -0.7759765323    0.3327646787
H        0.4010101576   -1.3405730816    0.9833066522
Br       1.1676640157    1.8038219900   -0.4828482425
6    

H       -0.6065082109   -0.0015501772   -0.8213318992
C        0.0279370110    0.3091127819    0.0155685208
H       -0.6284374287    0.6086300470    0.8394131872
O        0.8598532687   -0.7292997456    0.4051711012
H        0.3628959842   -1.3956224897    0.8906087906
Br       1.1580037709    1.8004475411   -0.5146712852
6    

H       -0.5932862904   -0.0338554947   -0.7895059239
C        0.0300331009    0.3205165246    0.0382941858
H       -0.6392665449    0.6492908503    0.8403571957
O        0.8687437554   -0.6898228926    0.4854328259
H        0.3520975846   -1.4443088187    0.7870949006
Br       1.1552147913    1.7905936092   -0.5461351047
