15   

H        1.8845503879   -1.1969432919   -1.1372783951
C        1.8989898430   -1.1487043307   -0.0516632413
C        2.9606943592   -1.7129157562    0.6605966621
C        2.9827615326   -1.6485463484    2.0588610627
C        1.9377440187   -1.0271729679    2.7676298700
C        0.8788116376   -0.4511550675    2.0341131626
C        0.8609935464   -0.5146557410    0.6358222471
H        0.0426240693   -0.0637824553    0.0809006370
H        0.0688826996    0.0726115166    2.5337518108
C        1.9680883683   -0.9741836753    4.2380957310
O        2.9986688411   -1.1458666493    4.8281181973
O        0.8176975165   -0.7689074310    4.9117198680
H        0.0392111191   -0.8750488027    4.3499162352
H        3.8161071333   -2.0883347915    2.6032831735
H        3.7727974076   -2.2011724863    0.1291529257
15   

H        1.8838576817   -1.2620478054   -1.1393029713
C        1.8976850541   -1.2010760676   -0.0543360986
C        2.9498305585   -1.7725909182    0.6665708236
C        2.9717723132   -1.6906361408    2.0641067166
C        1.9363535650   -1.0425349374    2.7629711095
C        0.8871238722   -0.4605203678    2.0206800987
C        0.8687458985   -0.5425070412    0.6235513123
H        0.0577803254   -0.0857916672    0.0625791280
H        0.0864423615    0.0827229147    2.5151240544
C        1.9669687079   -0.9570535557    4.2318023284
O        2.9799005709   -1.1865343014    4.8318113293
O        0.8201727735   -0.6788308861    4.8963827097
H        0.0378198781   -0.9607343381    4.4072733019
H        3.7988991605   -2.1341970892    2.6148244802
H        3.7553463573   -2.2788899020    0.1420859921
15   

H        1.8962135808   -1.3110828876   -1.1454713497
C        1.9060715517   -1.2407522709   -0.0610534967
C        2.9502957047   -1.8145574914    0.6697487426
C        2.9674283898   -1.7197140249    2.0667230971
C        1.9353380152   -1.0548152789    2.7547447380
C        0.8937839426   -0.4722956770    2.0023864276
C        0.8797244818   -0.5676504909    0.6062415897
H        0.0743151836   -0.1095808177    0.0384477457
H        0.0956978464    0.0808673722    2.4904774003
C        1.9609905227   -0.9456727612    4.2222483695
O        2.9519553600   -1.2277853219    4.8353878664
O        0.8187513595   -0.5924102168    4.8733903761
H        0.0425735843   -1.0278828458    4.5047395272
H        3.7893207164   -2.1638249790    2.6246627033
H        3.7538642189   -2.3318121732    0.1531037029
15   

H        1.9225824243   -1.3320184213   -1.1567541378
C        1.9249406522   -1.2589452397   -0.0725085924
C        2.9612627527   -1.8351692619    0.6677658156
C        2.9685563563   -1.7365643657    2.0647266929
C        1.9348660675   -1.0640506295    2.7429804264
C        0.9008632208   -0.4808171156    1.9810175627
C        0.8962142374   -0.5802843681    0.5852458397
H        0.0958836786   -0.1213310941    0.0110794986
H        0.1002071564    0.0740124987    2.4632557260
C        1.9493342915   -0.9460609383    4.2102323805
O        2.9158055587   -1.2749738308    4.8379288803
O        0.8161862423   -0.5120029357    4.8460307092
H        0.0570692655   -1.0667189309    4.6424410287
H        3.7847167411   -2.1821512989    2.6297095569
H        3.7664441436   -2.3569454352    0.1583193650
15   

H        1.9623586744   -1.3202253794   -1.1735337025
C        1.9534607407   -1.2517164497   -0.0890633435
C        2.9811051900   -1.8322587732    0.6599906867
C        2.9731972475   -1.7400860221    2.0575024144
C        1.9333809149   -1.0684796766    2.7273796230
C        0.9078093751   -0.4822338764    1.9565328683
C        0.9179678949   -0.5755727443    0.5604673813
H        0.1229740260   -0.1147721275   -0.0195223588
H        0.1001779078    0.0668873691    2.4337810349
C        1.9291469593   -0.9584922434    4.1957048625
O        2.8728577852   -1.3252648400    4.8365564315
O        0.8133844471   -0.4410311361    4.8144917730
H        0.0849205742   -1.0676986832    4.8165559905
H        3.7823953200   -2.1896155154    2.6291745598
H        3.7910472156   -2.3527625895    0.1569251499
15   

H        2.0135776068   -1.2842108494   -1.1913346290
C        1.9897548952   -1.2268386464   -0.1064814511
C        3.0069953146   -1.8148013008    0.6509812325
C        2.9788250517   -1.7381265816    2.0492588482
C        1.9295941223   -1.0734410766    2.7115496488
C        0.9143348069   -0.4806536669    1.9320852702
C        0.9443220915   -0.5589262686    0.5354444562
H        0.1558150250   -0.0942182670   -0.0501719932
H        0.0967630125    0.0578884416    2.4044913356
C        1.8997871122   -0.9847514010    4.1816005266
O        2.8238530391   -1.3846174627    4.8327035659
O        0.8135777641   -0.3840208727    4.7813433930
H        0.1343895329   -1.0226726858    5.0130015120
H        3.7793507006   -2.1947321154    2.6273222122
H        3.8240418554   -2.3298582525    0.1539319522
15   

H        2.0656461949   -1.2478168851   -1.2061178818
C        2.0254506916   -1.2028353557   -0.1211972725
C        3.0322735895   -1.7973499204    0.6450307940
C        2.9820827102   -1.7377648521    2.0436073110
C        1.9215827743   -1.0825433587    2.6976598266
C        0.9166563123   -0.4839714339    1.9090680124
C        0.9682885904   -0.5455923308    0.5122917772
H        0.1863759531   -0.0775483595   -0.0794101851
H        0.0879572947    0.0426249296    2.3755856160
C        1.8644648008   -1.0160943889    4.1688027370
O        2.7728100942   -1.4446641856    4.8270544181
O        0.8118864082   -0.3497796604    4.7476219735
H        0.2118289264   -0.9483311713    5.2015783603
H        3.7740355949   -2.2007827540    2.6281720300
H        3.8578332656   -2.3050513090    0.1546201630
15   

H        2.1064431257   -1.2277832671   -1.2160938617
C        2.0513951960   -1.1922742203   -0.1314993752
C        3.0492075260   -1.7906794272    0.6434540860
C        2.9792482766   -1.7440913877    2.0417481593
C        1.9083706448   -1.0967996776    2.6869972762
C        0.9123010193   -0.4951399423    1.8893397447
C        0.9832785229   -0.5443383405    0.4929814715
H        0.2071124265   -0.0747694897   -0.1049985452
H        0.0737530891    0.0216048371    2.3493406063
C        1.8283881370   -1.0446122746    4.1582436765
O        2.7179718929   -1.5063816611    4.8231421996
O        0.8069430448   -0.3321011349    4.7179690519
H        0.3143682362   -0.8555188143    5.3592646619
H        3.7640092306   -2.2109503977    2.6327777457
H        3.8828272437   -2.2918206766    0.1600564808
15   

H        2.1402168420   -1.2149188188   -1.2221844763
C        2.0728490230   -1.1849120684   -0.1381351496
C        3.0675982053   -1.7773535829    0.6453726390
C        2.9815059071   -1.7380214042    2.0430607760
C        1.8972876249   -1.1039810535    2.6790793654
C        0.9039579662   -0.5092358622    1.8727610258
C        0.9912435274   -0.5507651646    0.4771381265
H        0.2166861545   -0.0866342051   -0.1271198026
H        0.0540726583   -0.0051808108    2.3261740207
C        1.7990648920   -1.0595077510    4.1496555281
O        2.6824298442   -1.5240885205    4.8235997111
O        0.7732368745   -0.3583201056    4.6950982431
H        0.4261107457   -0.8002211738    5.4800723659
H        3.7636246648   -2.2006914732    2.6407434495
H        3.9111012802   -2.2685764788    0.1690469705
15   

H        2.1602149181   -1.2026492923   -1.2262248846
C        2.0836572841   -1.1781759834   -0.1426555075
C        3.0758581675   -1.7675311047    0.6464472795
C        2.9776950129   -1.7355526186    2.0435566915
C        1.8839172555   -1.1118384293    2.6732783768
C        0.8928552236   -0.5209158881    1.8614179783
C        0.9922309441   -0.5549493425    0.4664183649
H        0.2190215592   -0.0940482212   -0.1420069849
H        0.0348178029   -0.0268461934    2.3105963849
C        1.7732870249   -1.0739648113    4.1431193128
O        2.6438235577   -1.5544947917    4.8245015410
O        0.7398915337   -0.3917709077    4.6809002893
H        0.5372040601   -0.7272520831    5.5655056809
H        3.7575446867   -2.1962094087    2.6456787289
H        3.9265162164   -2.2509407601    0.1749009520
15   

H        2.1791630134   -1.1887963246   -1.2286758945
C        2.0953858148   -1.1690423738   -0.1455495982
C        3.0881204187   -1.7517009191    0.6479196966
C        2.9804281540   -1.7260407492    2.0444825319
C        1.8763466074   -1.1156710923    2.6690369332
C        0.8844929896   -0.5320619237    1.8529606778
C        0.9936017772   -0.5593262557    0.4585647959
H        0.2194865226   -0.1043281874   -0.1531377208
H        0.0178627309   -0.0499574662    2.2987514796
C        1.7556122556   -1.0841983111    4.1380086188
O        2.6168413565   -1.5725990153    4.8267423208
O        0.6983528723   -0.4453050078    4.6712337923
H        0.6316876847   -0.6531752277    5.6154516743
H        3.7601813325   -2.1820482179    2.6502238047
H        3.9462745462   -2.2254187214    0.1801507803
15   

H        2.1947093492   -1.1718836316   -1.2287385143
C        2.1059432011   -1.1574055125   -0.1459280028
C        3.1015682470   -1.7322140869    0.6496834938
C        2.9872629865   -1.7136296957    2.0458506637
C        1.8733528547   -1.1187092369    2.6677265025
C        0.8783352468   -0.5435165497    1.8495569613
C        0.9943545928   -0.5631266256    0.4556079035
H        0.2175712119   -0.1149023693   -0.1577146757
H        0.0034070442   -0.0748169529    2.2934742994
C        1.7453914501   -1.0948628721    4.1361247707
O        2.6008503096   -1.5892390423    4.8282279659
O        0.6573532767   -0.5109993448    4.6661296362
H        0.6999540803   -0.5653297355    5.6333404788
H        3.7687562443   -2.1642675446    2.6533532248
H        3.9667851925   -2.1948491487    0.1838446951
15   

H        2.2007633276   -1.1496480871   -1.2274291976
C        2.1101983111   -1.1421950504   -0.1446947694
C        3.1110378442   -1.7101653133    0.6492425503
C        2.9942791554   -1.7009353763    2.0452819508
C        1.8724214493   -1.1227802122    2.6688101013
C        0.8718574834   -0.5549564195    1.8522308131
C        0.9906678326   -0.5646396375    0.4583949883
H        0.2094910426   -0.1224389320   -0.1537152959
H       -0.0100705517   -0.1005749175    2.2971381809
C        1.7418442730   -1.1091455964    4.1372136933
O        2.5956126918   -1.6110677238    4.8255151724
O        0.6233657383   -0.5811850372    4.6669061589
H        0.7381070498   -0.4603452269    5.6215966941
H        3.7794771735   -2.1470754486    2.6513375841
H        3.9819464211   -2.1607690657    0.1822100723
15   

H        2.2023022499   -1.1263747772   -1.2237943428
C        2.1115892127   -1.1275544374   -0.1410421220
C        3.1179338320   -1.6912767123    0.6488774664
C        3.0009057353   -1.6934860137    2.0448978448
C        1.8731153559   -1.1314118298    2.6726558086
C        0.8666662785   -0.5683753190    1.8599068101
C        0.9860209470   -0.5662021837    0.4660605139
H        0.2002407787   -0.1280831794   -0.1430907570
H       -0.0208905539   -0.1278026772    2.3073807888
C        1.7424952170   -1.1297652323    4.1413428617
O        2.5948125588   -1.6433128635    4.8216728059
O        0.5999815756   -0.6453155250    4.6728259354
H        0.7516274357   -0.3386777537    5.5778857632
H        3.7901917488   -2.1370411976    2.6475648547
H        3.9931445974   -2.1301902083    0.1787487485
15   

H        2.2019019170   -1.1031431349   -1.2186238481
C        2.1113978969   -1.1150610443   -0.1359102389
C        3.1218509288   -1.6790404577    0.6485062897
C        3.0050262026   -1.6953979799    2.0444201442
C        1.8734443473   -1.1471897335    2.6777021704
C        0.8624158418   -0.5845220200    1.8703599638
C        0.9816774010   -0.5681081627    0.4765831031
H        0.1923435498   -0.1307580235   -0.1285294925
H       -0.0293416639   -0.1563478770    2.3213537998
C        1.7438414781   -1.1595802722    4.1464666813
O        2.5896860048   -1.6921495693    4.8182448066
O        0.5891282398   -0.6919400859    4.6844710685
H        0.7563898927   -0.2017431636    5.4991409894
H        3.7973356514   -2.1395975363    2.6426929900
H        3.9999731082   -2.1075266015    0.1741809039
15   

H        2.1945889925   -1.0680396383   -1.2110054292
C        2.1059945389   -1.0933245036   -0.1283475581
C        3.1233627060   -1.6562879709    0.6477357205
C        3.0089990958   -1.6901707548    2.0434663400
C        1.8730780161   -1.1607546437    2.6849596983
C        0.8544999628   -0.5998875195    1.8860019314
C        0.9715606381   -0.5655727606    0.4923039640
H        0.1765958776   -0.1300732078   -0.1067619629
H       -0.0421177129   -0.1883804106    2.3426498334
C        1.7466703787   -1.1927006338    4.1535260743
O        2.5937320746   -1.7315294789    4.8159687824
O        0.5843146081   -0.7355471359    4.7051185344
H        0.7467312763   -0.0720023406    5.3842247046
H        3.8064457424   -2.1340388175    2.6352290019
H        4.0047909428   -2.0707876843    0.1670987613
15   

H        2.1894955426   -1.0233836252   -1.1989663643
C        2.1008103150   -1.0662762801   -0.1168448806
C        3.1199385284   -1.6384873087    0.6500955877
C        3.0051293567   -1.6960050592    2.0449419852
C        1.8677992152   -1.1800205596    2.6945572160
C        0.8468551774   -0.6104800165    1.9050387541
C        0.9641058149   -0.5531856212    0.5120504339
H        0.1671903259   -0.1123332859   -0.0805191236
H       -0.0530149949   -0.2128654441    2.3674463817
C        1.7415377547   -1.2388741136    4.1617086621
O        2.5707483659   -1.8108536126    4.8153960276
O        0.6010843426   -0.7318112742    4.7354542568
H        0.7746778590    0.0717176422    5.2340679807
H        3.8033452330   -2.1476702409    2.6298700323
H        4.0028045112   -2.0423341784    0.1629945430
15   

H        2.1920722504   -0.9607154326   -1.1810337650
C        2.1016512529   -1.0240394616   -0.1000251589
C        3.1210333474   -1.6081215054    0.6575606026
C        3.0035357260   -1.6933348927    2.0506814666
C        1.8639991570   -1.1923097248    2.7077595827
C        0.8421882468   -0.6113949186    1.9279177306
C        0.9619616415   -0.5269480903    0.5364600420
H        0.1641852019   -0.0790384242   -0.0496911400
H       -0.0619993486   -0.2298263797    2.3953244519
C        1.7335388424   -1.2860344471    4.1719997394
O        2.5470548902   -1.8862473052    4.8167177345
O        0.6300298214   -0.7166576198    4.7707461311
H        0.8013009899    0.1859379278    5.0515046476
H        3.8010784289   -2.1553468509    2.6285722672
H        4.0057515559   -2.0005374930    0.1644175302
15   

H        2.1947134380   -0.8991313717   -1.1601231361
C        2.1028536255   -0.9809747595   -0.0804416889
C        3.1217470944   -1.5773763725    0.6681073168
C        3.0019830879   -1.6879210865    2.0591622349
C        1.8614107606   -1.1989156712    2.7232232875
C        0.8393887144   -0.6062372269    1.9525812333
C        0.9613006283   -0.4970446980    0.5629666728
H        0.1632098865   -0.0418566893   -0.0172019235
H       -0.0685717631   -0.2389427728    2.4240375362
C        1.7266404034   -1.3255009760    4.1840133022
O        2.5229630600   -1.9593881536    4.8163580767
O        0.6772146513   -0.6878127990    4.8066287795
H        0.8182109921    0.2612737249    4.8588856084
H        3.7983487492   -2.1607068765    2.6300936368
H        4.0074439265   -1.9605892122    0.1694147465
15   

H        2.1830111768   -0.8600667964   -1.1417205698
C        2.0933066554   -0.9538387408   -0.0627888817
C        3.1134250722   -1.5594262909    0.6765525510
C        2.9963525377   -1.6862097040    2.0663352321
C        1.8580493811   -1.2032879773    2.7385488849
C        0.8338263201   -0.6023330943    1.9771475282
C        0.9530082166   -0.4773820877    0.5885234140
H        0.1534685852   -0.0169975916    0.0144009604
H       -0.0753774290   -0.2442252136    2.4531166605
C        1.7265273604   -1.3498802070    4.1973750642
O        2.5033872645   -2.0224477502    4.8141403649
O        0.7378355067   -0.6540096401    4.8415042669
H        0.8071218129    0.2927487769    4.6857321843
H        3.7932881589   -2.1666367189    2.6302098695
H        3.9978342178   -1.9376168541    0.1716807945
15   

H        2.1509382082   -0.8494500340   -1.1307654969
C        2.0675452801   -0.9481167695   -0.0517306696
C        3.0900780727   -1.5612322972    0.6778201942
C        2.9814289195   -1.6943415994    2.0675336443
C        1.8501613251   -1.2091809971    2.7498293881
C        0.8222670401   -0.6019067482    1.9982587870
C        0.9329659151   -0.4711636722    0.6093157938
H        0.1313005495   -0.0063096098    0.0417374633
H       -0.0843083434   -0.2453582419    2.4800863279
C        1.7320711998   -1.3605416134    4.2090352845
O        2.4827789562   -2.0780719343    4.8083070248
O        0.8064597221   -0.6146808271    4.8726823357
H        0.7703691066    0.2911116053    4.5467541279
H        3.7803544921   -2.1800745130    2.6241480554
H        3.9699928209   -1.9401252678    0.1655829318
15   

H        2.1027272627   -0.8653926065   -1.1266682132
C        2.0293486530   -0.9624629795   -0.0467354454
C        3.0544375487   -1.5830117121    0.6726102258
C        2.9592341870   -1.7133573522    2.0633837229
C        1.8400988598   -1.2169748286    2.7574148001
C        0.8082657568   -0.6034332727    2.0161274100
C        0.9053865638   -0.4761031682    0.6256659714
H        0.1017182548   -0.0061636035    0.0651145193
H       -0.0914795329   -0.2397227048    2.5048523002
C        1.7446223341   -1.3600076061    4.2189671693
O        2.4629092781   -2.1234719283    4.8019672369
O        0.8796570551   -0.5710231832    4.8998162704
H        0.7137027303    0.2641688277    4.4462888539
H        3.7606816363   -2.2034564573    2.6126195985
H        3.9263407831   -1.9689973941    0.1519582238
15   

H        2.0480119296   -0.9007165152   -1.1278406798
C        1.9857050424   -0.9915616065   -0.0466557810
C        3.0099524763   -1.6236542711    0.6634437354
C        2.9296607948   -1.7447854032    2.0557994092
C        1.8277308196   -1.2265521909    2.7612809591
C        0.7955544697   -0.6020466720    2.0293069318
C        0.8773795549   -0.4849683813    0.6367680334
H        0.0745370011   -0.0059573478    0.0827413264
H       -0.0928006815   -0.2204103161    2.5244169452
C        1.7595309640   -1.3521489483    4.2260582469
O        2.4386431647   -2.1607922615    4.7957947108
O        0.9540667574   -0.5217591351    4.9195930511
H        0.6435555903    0.2202057428    4.3848023805
H        3.7314061482   -2.2418410639    2.5983989325
H        3.8703063464   -2.0244676824    0.1347866972
15   

H        1.9918049042   -0.9392893733   -1.1330642639
C        1.9428151254   -1.0198650349   -0.0503758609
C        2.9616924816   -1.6703987670    0.6501091331
C        2.8991584828   -1.7770377345    2.0443390926
C        1.8214333361   -1.2257552041    2.7626956013
C        0.7944372459   -0.5812671799    2.0399376417
C        0.8580652669   -0.4798230299    0.6450004348
H        0.0601787521    0.0153308565    0.0980742531
H       -0.0754922151   -0.1674559253    2.5406457616
C        1.7842871622   -1.3319355372    4.2312349782
O        2.4463606446   -2.1623385220    4.7902618717
O        1.0071228433   -0.4880721497    4.9361936299
H        0.5258446077    0.1308077647    4.3713537733
H        3.6984653320   -2.2865929458    2.5789412951
H        3.8049809761   -2.0954932270    0.1129580893
