15   

H        1.8844834188   -1.1974150376   -1.1372587923
C        1.8989256708   -1.1491106265   -0.0516465881
C        2.9606298314   -1.7132816801    0.6606465941
C        2.9827071464   -1.6488160011    2.0589071093
C        1.9377000169   -1.0273827290    2.7676383251
C        0.8787642770   -0.4514141260    2.0340865883
C        0.8609357923   -0.5150116659    0.6358009756
H        0.0425688587   -0.0641649041    0.0808538200
H        0.0688491451    0.0724069745    2.5336905593
C        1.9680897212   -0.9741908872    4.2380961931
O        2.9986689886   -1.1458832446    4.8281131912
O        0.8177008376   -0.7689023661    4.9117254249
H        0.0392105000   -0.8750360873    4.3499263529
H        3.8160619028   -2.0885563413    2.6033537816
H        3.7727304091   -2.2015720059    0.1292301895
15   

H        1.8836705715   -1.2630043526   -1.1392463952
C        1.8975115647   -1.2018986205   -0.0542872370
C        2.9496599487   -1.7733325956    0.6666809610
C        2.9716331286   -1.6911810418    2.0642060784
C        1.9362431909   -1.0429558359    2.7629974559
C        0.8870029116   -0.4610394123    2.0206420619
C        0.8685928415   -0.5432244315    0.6235268128
H        0.0576303615   -0.0865614968    0.0625069858
H        0.0863567185    0.0823185617    2.5150175492
C        1.9669692172   -0.9570638609    4.2318026208
O        2.9798986341   -1.1865614993    4.8318058916
O        0.8201798788   -0.6788194542    4.8963881059
H        0.0378185925   -0.9607088413    4.4072844056
H        3.7987823042   -2.1346451819    2.6149678201
H        3.7551656622   -2.2797016083    0.1422486738
15   

H        1.8958444468   -1.3125187592   -1.1453668719
C        1.9057372956   -1.2419867050   -0.0609624078
C        2.9499758369   -1.8156683335    0.6699180431
C        2.9671755519   -1.7205281342    2.0668730343
C        1.9351388719   -1.0554444468    2.7547956484
C        0.8935579085   -0.4730745095    2.0023553922
C        0.8794305140   -0.5687282541    0.6062336311
H        0.0740190134   -0.1107380308    0.0383781586
H        0.0955341727    0.0802620929    2.4903523238
C        1.9609908645   -0.9456829309    4.2222495775
O        2.9519525252   -1.2278115673    4.8353835352
O        0.8187592339   -0.5923984266    4.8733959186
H        0.0425716754   -1.0278574338    4.5047499681
H        3.7891107247   -2.1644910138    2.6248668583
H        3.7535224872   -2.3330267821    0.1533434409
15   

H        1.9219810936   -1.3339154775   -1.1566103811
C        1.9244042173   -1.2605773085   -0.0723828457
C        2.9607597790   -1.8366348937    0.6679761545
C        2.9681674781   -1.7376379630    2.0649104839
C        1.9345604068   -1.0648834449    2.7430511344
C        0.9005061235   -0.4818514864    1.9809999991
C        0.8957419366   -0.5817134366    0.5852590439
H        0.0953981863   -0.1228666326    0.0110252256
H        0.0999425252    0.0732066028    2.4631297001
C        1.9493363838   -0.9460740059    4.2102333606
O        2.9157964688   -1.2750075839    4.8379326195
O        0.8161977537   -0.5119863117    4.8460295134
H        0.0570666120   -1.0666835643    4.6424416260
H        3.7843972254   -2.1830250208    2.6299502847
H        3.7659045802   -2.3585445753    0.1586092064
15   

H        1.9614578681   -1.3224472259   -1.1733831894
C        1.9526677883   -1.2536320420   -0.0889313002
C        2.9803766245   -1.8339766649    0.6601890688
C        2.9726455721   -1.7413470384    2.0576729914
C        1.9329468265   -1.0694641681    2.7274544608
C        0.9072872310   -0.4834591671    1.9565384299
C        0.9172677096   -0.5772576622    0.5605042943
H        0.1222401402   -0.1165826496   -0.0195397321
H        0.0997799649    0.0659277830    2.4336918317
C        1.9291472176   -0.9585095122    4.1957072780
O        2.8728462897   -1.3253088097    4.8365547622
O        0.8133990387   -0.4410092316    4.8144934309
H        0.0849154923   -1.0676539482    4.8165609711
H        3.7819470606   -2.1906364628    2.6293872320
H        3.7902632222   -2.3546304368    0.1571898845
15   

H        2.0124585415   -1.2864741857   -1.1912251413
C        1.9887785996   -1.2287933516   -0.1063851446
C        3.0061125766   -1.8165491800    0.6511132992
C        2.9781669933   -1.7394100286    2.0493706371
C        1.9290745994   -1.0744500916    2.7116040134
C        0.9136948078   -0.4819156119    1.9321023833
C        0.9434564445   -0.5606547881    0.5354840138
H        0.1548946812   -0.0960778284   -0.0501632532
H        0.0962642888    0.0568934425    2.4044491037
C        1.8997871848   -0.9847667810    4.1816034081
O        2.8238412094   -1.3846559978    4.8327016725
O        0.8135931305   -0.3839986397    4.7813436128
H        0.1343853978   -1.0226276622    5.0130069205
H        3.7788217003   -2.1957623841    2.6274552553
H        3.8230910630   -2.3317512214    0.1541026810
15   

H        2.0645109501   -1.2497962654   -1.2060670718
C        2.0244657404   -1.2045486839   -0.1211519070
C        3.0313896573   -1.7988837764    0.6450829737
C        2.9814293167   -1.7388952787    2.0436506294
C        1.9210675214   -1.0834352510    2.6976863784
C        0.9160145975   -0.4850844689    1.9090875137
C        0.9674153004   -0.5471106993    0.5123209339
H        0.1854409170   -0.0791795470   -0.0793889087
H        0.0874523606    0.0417455203    2.3755844931
C        1.8644636305   -1.0161122555    4.1688072952
O        2.7727895320   -1.4447172497    4.8270557774
O        0.8119089140   -0.3497498152    4.7476210989
H        0.2118246188   -0.9482730340    5.2015791505
H        3.7735111611   -2.2016893931    2.6282181197
H        3.8568791152   -2.3067089164    0.1546821995
15   

H        2.1054552874   -1.2293262697   -1.2160851356
C        2.0505415692   -1.1936116461   -0.1314905472
C        3.0484467738   -1.7918757273    0.6434522023
C        2.9786901126   -1.7449739100    2.0417456404
C        1.9079301031   -1.0974985083    2.6870041983
C        0.9117464400   -0.4960134200    1.8893577491
C        0.9825206304   -0.5455268604    0.4930000522
H        0.2062961209   -0.0760463441   -0.1049735704
H        0.0733128160    0.0209127164    2.3493631610
C        1.8283876185   -1.0446254665    4.1582480503
O        2.7179557128   -1.5064188120    4.8231435473
O        0.8069598146   -0.3320784798    4.7179659736
H        0.3143662119   -0.8554760994    5.3592634566
H        3.7635633423   -2.2116552815    2.6327667774
H        3.8820054802   -2.2931105710    0.1600462408
15   

H        2.1395044902   -1.2160587219   -1.2221905162
C        2.0722337894   -1.1859002350   -0.1381393393
C        3.0670516834   -1.7782350627    0.6453618137
C        2.9811059612   -1.7386710940    2.0430522667
C        1.8969712085   -1.1044975888    2.6790794839
C        0.9035574207   -0.5098840916    1.8727678882
C        0.9906959812   -0.5516459247    0.4771425733
H        0.2160950888   -0.0875820263   -0.1271111063
H        0.0537533252   -0.0056972083    2.3261864718
C        1.7990665535   -1.0595178949    4.1496603314
O        2.6824184080   -1.5241133775    4.8236025509
O        0.7732467616   -0.3583028982    4.6950932323
H        0.4261062690   -0.8001900064    5.4800685747
H        3.7633070879   -2.2012079817    2.6407304352
H        3.9105117610   -2.2695251795    0.1690292131
15   

H        2.1597671559   -1.2034020526   -1.2262338209
C        2.0832702937   -1.1788292551   -0.1426623853
C        3.0755125785   -1.7681169060    0.6464387046
C        2.9774414314   -1.7359865340    2.0435510638
C        1.8837179849   -1.1121822050    2.6732774032
C        0.8926046952   -0.5213435906    1.8614183597
C        0.9918879885   -0.5555297012    0.4664158425
H        0.2186525825   -0.0946707078   -0.1420083721
H        0.0346196799   -0.0271854593    2.3105995203
C        1.7732893668   -1.0739759448    4.1431246634
O        2.6438080444   -1.5545251973    4.8245058725
O        0.7399032048   -0.3917489861    4.6808940055
H        0.5371981302   -0.7272174910    5.5654997440
H        3.7573420592   -2.1965580696    2.6456724063
H        3.9261426215   -2.2515725383    0.1748889474
15   

H        2.1789651629   -1.1891813956   -1.2286799364
C        2.0952145450   -1.1693763985   -0.1455525114
C        3.0879670077   -1.7520000684    0.6479200535
C        2.9803155881   -1.7262623149    2.0444846970
C        1.8762585754   -1.1158469646    2.6690378885
C        0.8843824276   -0.5322809515    1.8529576791
C        0.9934501997   -0.5596232561    0.4585601849
H        0.2193238793   -0.1046470804   -0.1531446424
H        0.0177759763   -0.0501317578    2.2987463239
C        1.7556163487   -1.0842057432    4.1380139996
O        2.6168335977   -1.5726145196    4.8267461092
O        0.6983563091   -0.4452919620    4.6712270085
H        0.6316778721   -0.6531536498    5.6154453424
H        3.7600919401   -2.1822264697    2.6502287198
H        3.9461088219   -2.2257413511    0.1801523505
15   

H        2.1947376720   -1.1718993767   -1.2287321633
C        2.1059675618   -1.1574190568   -0.1459220041
C        3.1015894653   -1.7322259010    0.6496947235
C        2.9872789726   -1.7136386128    2.0458615795
C        1.8733664574   -1.1187168540    2.6677320679
C        0.8783521446   -0.5435259184    1.8495566772
C        0.9943767572   -0.5631389247    0.4556082344
H        0.2175956144   -0.1149159068   -0.1577181196
H        0.0034217691   -0.0748250392    2.2934683438
C        1.7453979085   -1.0948666235    4.1361303246
O        2.6008502046   -1.5892391563    4.8282333557
O        0.6573499088   -0.5109972470    4.6661220628
H        0.6999389110   -0.5653211222    5.6333332705
H        3.7687699287   -2.1642751678    2.6533679937
H        3.9668080927   -2.1948618998    0.1838600348
15   

H        2.2009836263   -1.1492757432   -1.2274090651
C        2.1103895642   -1.1418724150   -0.1446767213
C        3.1112088605   -1.7098768038    0.6492616961
C        2.9944062604   -1.7007228045    2.0452980074
C        1.8725231783   -1.1226123549    2.6688220399
C        0.8719839830   -0.5547460281    1.8522415015
C        0.9908384721   -0.5643529791    0.4584089812
H        0.2096745009   -0.1221309122   -0.1537022596
H       -0.0099689981   -0.1004081134    2.2971438764
C        1.7418525834   -1.1091454935    4.1372193448
O        2.5956212908   -1.6110535645    4.8255198551
O        0.6233568342   -0.5811941972    4.6668987331
H        0.7380839982   -0.4603478616    5.6215896631
H        3.7795798042   -2.1469058989    2.6513536524
H        3.9821305815   -2.1604579316    0.1822319248
15   

H        2.2027005832   -1.1255954155   -1.2237543568
C        2.1119356547   -1.1268795429   -0.1410065876
C        3.1182451199   -1.6906729473    0.6489069826
C        3.0011374440   -1.6930410611    2.0449203925
C        1.8732997833   -1.1310607288    2.6726770428
C        0.8668945175   -0.5679359884    1.8599347852
C        0.9863291900   -0.5656032802    0.4660955436
H        0.2005709228   -0.1274396658   -0.1430519153
H       -0.0207091393   -0.1274546487    2.3074056967
C        1.7425057022   -1.1297618481    4.1413487381
O        2.5948292523   -1.6432847721    4.8216789977
O        0.5999696414   -0.6453359559    4.6728183693
H        0.7515957899   -0.3386902404    5.5778783972
H        3.7903784140   -2.1366848716    2.6475812338
H        3.9934798609   -2.1295383178    0.1787779252
15   

H        2.2024867671   -1.1019348139   -1.2185548715
C        2.1119060333   -1.1140155914   -0.1358494539
C        3.1223054267   -1.6781097566    0.6485535968
C        3.0053626193   -1.6947145746    2.0444544792
C        1.8737125427   -1.1466479070    2.6777361538
C        0.8627506035   -0.5838390970    1.8704091658
C        0.9821306402   -0.5671772061    0.4766452214
H        0.1928303554   -0.1297546401   -0.1284588431
H       -0.0290751511   -0.1558037992    2.3213997836
C        1.7438508674   -1.1595768666    4.1464720475
O        2.5897002815   -1.6921276373    4.8182492012
O        0.5891191364   -0.6919566598    4.6844649821
H        0.7563617458   -0.2017551547    5.4991357891
H        3.7976033443   -2.1390545687    2.6427142531
H        4.0004616708   -2.1065236558    0.1742258948
15   

H        2.1953668285   -1.0663855486   -1.2108946292
C        2.1066700762   -1.0918930393   -0.1282503087
C        3.1239685189   -1.6550097767    0.6478130925
C        3.0094475729   -1.6892305043    2.0435223021
C        1.8734338093   -1.1600115331    2.6850127432
C        0.8549425427   -0.5989554025    1.8860774218
C        0.9721612147   -0.5643014560    0.4924008916
H        0.1772399893   -0.1287056766   -0.1066529157
H       -0.0417675049   -0.1876412599    2.3427177515
C        1.7466811696   -1.1926938506    4.1535312613
O        2.5937540428   -1.7314971790    4.8159724646
O        0.5843044840   -0.7355723178    4.7051138892
H        0.7466948565   -0.0720224771    5.3842213722
H        3.8068039610   -2.1332877585    2.6352649957
H        4.0054434834   -2.0694080417    0.1671741629
15   

H        2.1905560918   -1.0213728360   -1.1987889302
C        2.1017281497   -1.0645332032   -0.1166897359
C        3.1207622637   -1.6369198503    0.6502449945
C        3.0057378848   -1.6948456046    2.0450568807
C        1.8682786717   -1.1791090467    2.6946414149
C        0.8474502718   -0.6093493928    1.9051310857
C        0.9649174419   -0.5516446135    0.5121781835
H        0.1680617586   -0.1106837370   -0.0803912838
H       -0.0525449931   -0.2119773653    2.3675039040
C        1.7415560525   -1.2388603941    4.1617148102
O        2.5707986420   -1.8107868799    4.8154003260
O        0.6010662935   -0.7318610651    4.7354519092
H        0.7746081666    0.0716806668    5.2340629708
H        3.8038365433   -2.1467345767    2.6299723199
H        4.0036962199   -2.0406384700    0.1631607672
15   

H        2.1933876706   -0.9585716483   -1.1807830073
C        2.1027818368   -1.0221800146   -0.0998065111
C        3.1220374357   -1.6064535269    0.6578027061
C        3.0042670405   -1.6921030319    2.0508745670
C        1.8645739597   -1.1913376149    2.7078778281
C        0.8429141943   -0.6101840124    1.9280139682
C        0.9629615785   -0.5252992505    0.5366075964
H        0.1652679968   -0.0772716724   -0.0495667343
H       -0.0614221026   -0.2288735861    2.3953442235
C        1.7335516212   -1.2860274488    4.1720040923
O        2.5470794022   -1.8862187993    4.8167186007
O        0.6300193536   -0.7166803774    4.7707449260
H        0.8012632659    0.1859191574    5.0515072455
H        3.8016635520   -2.1543602388    2.6287710410
H        4.0068409382   -1.9987370626    0.1647074455
15   

H        2.1961094035   -0.8971959229   -1.1598393484
C        2.1040481525   -0.9792927503   -0.0801942564
C        3.1228064180   -1.5758578335    0.6684100031
C        3.0027505809   -1.6867940466    2.0594100331
C        1.8620097401   -1.1980300260    2.7233583683
C        0.8401467596   -0.6051450991    1.9526608256
C        0.9623520948   -0.4955588603    0.5631048803
H        0.1643514681   -0.0402724381   -0.0171111611
H       -0.0679696153   -0.2380920685    2.4240057637
C        1.7266546409   -1.3254933139    4.1840171593
O        2.5229916889   -1.9593575847    4.8163591587
O        0.6772039887   -0.6878346228    4.8066287560
H        0.8181736138    0.2612559474    4.8588873728
H        3.7989668619   -2.1597974565    2.6303692846
H        4.0085987482   -1.9589475174    0.1697928555
15   

H        2.1842936113   -0.8585597574   -1.1414676904
C        2.0943994921   -0.9525263069   -0.0625686863
C        3.1143919875   -1.5582351413    0.6768490608
C        2.9970487148   -1.6853217408    2.0665830338
C        1.8585893221   -1.2025920397    2.7386688612
C        0.8345123602   -0.6014819061    1.9771896890
C        0.9539665378   -0.4762255753    0.5886187077
H        0.1545122642   -0.0157697737    0.0144338017
H       -0.0748324108   -0.2435678140    2.4530361525
C        1.7265393064   -1.3498761132    4.1973771368
O        2.5034087052   -2.0224237029    4.8141474954
O        0.7378277358   -0.6540267079    4.8415011394
H        0.8070926336    0.2927333846    4.6857291610
H        3.7938502214   -2.1659166793    2.6305036382
H        3.9988924312   -1.9363282472    0.1720648342
15   

H        2.1519534422   -0.8483792753   -1.1305808029
C        2.0684089479   -0.9471820488   -0.0515701351
C        3.0908427072   -1.5603792351    0.6780526361
C        2.9819786865   -1.6937021425    2.0677304419
C        1.8505858700   -1.2086805936    2.7499165966
C        0.8228060787   -0.6013000897    1.9982719564
C        0.9337211014   -0.4703416551    0.6093684456
H        0.1321234712   -0.0054405350    0.0417323273
H       -0.0838803670   -0.2448921347    2.4799952336
C        1.7320799397   -1.3605367496    4.2090372779
O        2.4827995999   -2.0780554326    4.8083043997
O        0.8064534336   -0.6146942322    4.8726871738
H        0.7703461006    0.2910990003    4.5467632775
H        3.7808004033   -2.1795526403    2.6243907756
H        3.9708317553   -1.9392018840    0.1658915489
15   

H        2.1034333775   -0.8647275381   -1.1265602542
C        2.0299491799   -0.9618803833   -0.0466420799
C        3.0549697584   -1.5824775528    0.6727605174
C        2.9596173969   -1.7129539838    2.0635128154
C        1.8403946882   -1.2166583377    2.7574644291
C        0.8086404505   -0.6030524906    2.0161180651
C        0.9059111823   -0.4755902960    0.6256806626
H        0.1022900247   -0.0056231084    0.0650842891
H       -0.0911810358   -0.2394295266    2.5047682156
C        1.7446312744   -1.3600023303    4.2189677666
O        2.4629322401   -2.1234549509    4.8019628397
O        0.8796504269   -0.5710367319    4.8998210819
H        0.7136785513    0.2641547569    4.4462994831
H        3.7609938717   -2.2031256369    2.6127870631
H        3.9269253077   -1.9684199758    0.1521644906
15   

H        2.0483746635   -0.9004082074   -1.1277964059
C        1.9860140395   -0.9912903827   -0.0466177236
C        3.0102262073   -1.6234060050    0.6635129702
C        2.9298586730   -1.7445968201    2.0558597726
C        1.8278846463   -1.2264024612    2.7613006940
C        0.7957492085   -0.6018659201    2.0292942812
C        0.8776505145   -0.4847274251    0.6367656862
H        0.0748325019   -0.0057030059    0.0827147523
H       -0.0926436671   -0.2202684332    2.5243666389
C        1.7595380070   -1.3521456080    4.2260588572
O        2.4386596347   -2.1607815522    4.7957903969
O        0.9540626887   -0.5217672158    4.9195987469
H        0.6435407285    0.2201966115    4.3848134531
H        3.7315675596   -2.2416871903    2.5984811076
H        3.8706063522   -2.0242008950    0.1348848900
15   

H        1.9917913120   -0.9392917986   -1.1330658813
C        1.9428054568   -1.0198663510   -0.0503772195
C        2.9616868418   -1.6703967737    0.6501048860
C        2.8991579698   -1.7770342911    2.0443351373
C        1.8214338592   -1.2257539095    2.7626950462
C        0.7944338570   -0.5812688897    2.0399399445
C        0.8580568306   -0.4798260763    0.6450023549
H        0.0601674226    0.0153255781    0.0980783830
H       -0.0754945445   -0.1674584877    2.5406505067
C        1.7842938436   -1.3319329438    4.2312348889
O        2.4463763271   -2.1623277464    4.7902588936
O        1.0071194014   -0.4880788124    4.9361972834
H        0.5258321485    0.1307977126    4.3713620098
H        3.6984681784   -2.2865868235    2.5789348695
H        3.8049745636   -2.0954897432    0.1129514432
