15   

H        1.8844835480   -1.1974140102   -1.1372588254
C        1.8989257809   -1.1491097751   -0.0516466137
C        2.9606299527   -1.7132809086    0.6606464895
C        2.9827072450   -1.6488154487    2.0589070122
C        1.9377000898   -1.0273823198    2.7676383135
C        0.8787643270   -0.4514136522    2.0340866647
C        0.8609358609   -0.5150109735    0.6358010411
H        0.0425689020   -0.0641641793    0.0808539492
H        0.0688491483    0.0724072920    2.5336907250
C        1.9680897212   -0.9741908872    4.2380961931
O        2.9986689886   -1.1458832446    4.8281131912
O        0.8177008376   -0.7689023661    4.9117254249
H        0.0392105000   -0.8750360873    4.3499263529
H        3.8160619902   -2.0885558799    2.6033536285
H        3.7727305519   -2.2015711369    0.1292300269
15   

H        1.8836711967   -1.2630015670   -1.1392465789
C        1.8975121029   -1.2018962881   -0.0542873908
C        2.9496604654   -1.7733305078    0.6666806417
C        2.9716335182   -1.6911795753    2.0642057981
C        1.9362434705   -1.0429547651    2.7629973841
C        0.8870032214   -0.4610380633    2.0206421660
C        0.8685932809   -0.5432224658    0.6235268714
H        0.0576308014   -0.0865593766    0.0625071753
H        0.0863569107    0.0823195713    2.5150178347
C        1.9669692172   -0.9570638609    4.2318026208
O        2.9798986341   -1.1865614993    4.8318058916
O        0.8201798788   -0.6788194542    4.8963881059
H        0.0378185925   -0.9607088413    4.4072844056
H        3.7987826380   -2.1346439688    2.6149674213
H        3.7551662407   -2.2796992686    0.1422482078
15   

H        1.8958455003   -1.3125149045   -1.1453671519
C        1.9057382231   -1.2419834402   -0.0609626483
C        2.9499765959   -1.8156656150    0.6699176130
C        2.9671760998   -1.7205262487    2.0668726602
C        1.9351393745   -1.0554428803    2.7547955209
C        0.8935586064   -0.4730723507    2.0023554636
C        0.8794314241   -0.5687252500    0.6062336371
H        0.0740200323   -0.1107346483    0.0383783146
H        0.0955347953    0.0802639239    2.4903526437
C        1.9609908645   -0.9456829309    4.2222495775
O        2.9519525252   -1.2278115673    4.8353835352
O        0.8187592339   -0.5923984266    4.8733959186
H        0.0425716754   -1.0278574338    4.5047499681
H        3.7891110687   -2.1644896667    2.6248663582
H        3.7535232373   -2.3330239038    0.1533428320
15   

H        1.9219827056   -1.3339100826   -1.1566108002
C        1.9244056516   -1.2605727193   -0.0723832100
C        2.9607610519   -1.8366309259    0.6679755285
C        2.9681684386   -1.7376351654    2.0649099422
C        1.9345612150   -1.0648812257    2.7430509400
C        0.9005071481   -0.4818485459    1.9810000697
C        0.8957432719   -0.5817093286    0.5852590253
H        0.0953996243   -0.1228620880    0.0110254148
H        0.0999433758    0.0732090124    2.4631300903
C        1.9493363838   -0.9460740059    4.2102333606
O        2.9157964688   -1.2750075839    4.8379326195
O        0.8161977537   -0.5119863117    4.8460295134
H        0.0570666120   -1.0666835643    4.6424416260
H        3.7843979515   -2.1830228846    2.6299495618
H        3.7659059002   -2.3585402792    0.1586083170
15   

H        1.9614601421   -1.3224418110   -1.1733835556
C        1.9526697861   -1.2536273540   -0.0889316221
C        2.9803785017   -1.8339723807    0.6601885946
C        2.9726470027   -1.7413438548    2.0576725816
C        1.9329479275   -1.0694617196    2.7274542772
C        0.9072885115   -0.4834561983    1.9565384109
C        0.9172694351   -0.5772535949    0.5605041978
H        0.1222419121   -0.1165783461   -0.0195397018
H        0.0997808979    0.0659300425    2.4336920417
C        1.9291472176   -0.9585095122    4.1957072780
O        2.8728462897   -1.3253088097    4.8365547622
O        0.8133990387   -0.4410092316    4.8144934309
H        0.0849154923   -1.0676539482    4.8165609711
H        3.7819482587   -2.1906338171    2.6293867294
H        3.7902652738   -2.3546257406    0.1571892638
15   

H        2.0124610244   -1.2864687933   -1.1912253854
C        1.9887808025   -1.2287886627   -0.1063853594
C        3.0061146037   -1.8165449551    0.6511129566
C        2.9781685495   -1.7394068880    2.0493703406
C        1.9290758544   -1.0744476035    2.7116038892
C        0.9136963060   -0.4819125384    1.9321023899
C        0.9434584094   -0.5606506346    0.5354839710
H        0.1548967334   -0.0960733939   -0.0501631888
H        0.0962654526    0.0568958607    2.4044492786
C        1.8997871848   -0.9847667810    4.1816034081
O        2.8238412094   -1.3846559978    4.8327016725
O        0.8135931305   -0.3839986397    4.7813436128
H        0.1343853978   -1.0226276622    5.0130069205
H        3.7788229566   -2.1957598622    2.6274548839
H        3.8230932252   -2.3317466637    0.1541022155
15   

H        2.0645140242   -1.2497909680   -1.2060671999
C        2.0244683994   -1.2045441155   -0.1211520190
C        3.0313919914   -1.7988797780    0.6450828459
C        2.9814310237   -1.7388923860    2.0436505261
C        1.9210688958   -1.0834329297    2.6976863201
C        0.9160163623   -0.4850814699    1.9090874728
C        0.9674176967   -0.5471065952    0.5123208672
H        0.1854435103   -0.0791750882   -0.0793889538
H        0.0874537865    0.0417479435    2.3755845028
C        1.8644636305   -1.0161122555    4.1688072952
O        2.7727895320   -1.4447172497    4.8270557774
O        0.8119089140   -0.3497498152    4.7476210989
H        0.2118246188   -0.9482730340    5.2015791505
H        3.7735124905   -2.2016871664    2.6282180022
H        3.8568816068   -2.3067046403    0.1546820499
15   

H        2.1054578835   -1.2293224845   -1.2160851284
C        2.0505437957   -1.1936083769   -0.1314905427
C        3.0484487347   -1.7918728295    0.6434522613
C        2.9786915266   -1.7449717943    2.0417456975
C        1.9079312223   -1.0974968228    2.6870041983
C        0.9117478788   -0.4960112792    1.8893576962
C        0.9825226096   -0.5455239440    0.4930000019
H        0.2062982653   -0.0760431990   -0.1049736552
H        0.0733139749    0.0209144273    2.3493630799
C        1.8283876185   -1.0446254665    4.1582480503
O        2.7179557128   -1.5064188120    4.8231435473
O        0.8069598146   -0.3320784798    4.7179659736
H        0.3143662119   -0.8554760994    5.3592634566
H        3.7635644514   -2.2116536224    2.6327668783
H        3.8820076004   -2.2931074534    0.1600463485
15   

H        2.1395064307   -1.2160559536   -1.2221904745
C        2.0722354373   -1.1858978687   -0.1381393045
C        3.0670530805   -1.7782330503    0.6453619005
C        2.9811069408   -1.7386696640    2.0430523442
C        1.8969720061   -1.1044964040    2.6790795011
C        0.9035584979   -0.5098825136    1.8727678578
C        0.9906974803   -0.5516437558    0.4771425520
H        0.2160967608   -0.0875796134   -0.1271111595
H        0.0537542241   -0.0056958996    2.3261864068
C        1.7990665535   -1.0595178949    4.1496603314
O        2.6824184080   -1.5241133775    4.8236025509
O        0.7732467616   -0.3583028982    4.6950932323
H        0.4261062690   -0.8001900064    5.4800685747
H        3.7633078124   -2.2012069356    2.6407305504
H        3.9105132541   -2.2695230479    0.1690293485
15   

H        2.1597681194   -1.2034003252   -1.2262337996
C        2.0832711435   -1.1788277493   -0.1426623676
C        3.0755133574   -1.7681155322    0.6464387091
C        2.9774420222   -1.7359855131    2.0435510640
C        1.8837184490   -1.1121814175    2.6732774136
C        0.8926052698   -0.5213425997    1.8614183795
C        0.9918887488   -0.5555283648    0.4664158686
H        0.2186533948   -0.0946692758   -0.1420083377
H        0.0346201465   -0.0271846538    2.3105995383
C        1.7732893668   -1.0739759448    4.1431246634
O        2.6438080444   -1.5545251973    4.8245058725
O        0.7399032048   -0.3917489861    4.6808940055
H        0.5371981302   -0.7272174910    5.5654997440
H        3.7573425544   -2.1965572258    2.6456723919
H        3.9261434655   -2.2515710387    0.1748889406
15   

H        2.1789656327   -1.1891803649   -1.2286799274
C        2.0952149535   -1.1693755358   -0.1455525026
C        3.0879674033   -1.7519992587    0.6479200407
C        2.9803158854   -1.7262617395    2.0444846836
C        1.8762587847   -1.1158465677    2.6690378941
C        0.8843826586   -0.5322804838    1.8529577039
C        0.9934505307   -0.5596225574    0.4585602136
H        0.2193242126   -0.1046463466   -0.1531445908
H        0.0177761229   -0.0501314500    2.2987463565
C        1.7556163487   -1.0842057432    4.1380139996
O        2.6168335977   -1.5726145196    4.8267461092
O        0.6983563091   -0.4452919620    4.6712270085
H        0.6316778721   -0.6531536498    5.6154453424
H        3.7600922180   -2.1822259605    2.6502286813
H        3.9461092813   -2.2257404070    0.1801523200
15   

H        2.1947377794   -1.1718992303   -1.2287321581
C        2.1059676385   -1.1574189645   -0.1459220020
C        3.1015895383   -1.7322258128    0.6496947270
C        2.9872790027   -1.7136385810    2.0458615807
C        1.8733664649   -1.1187168621    2.6677320655
C        0.8783521415   -0.5435259574    1.8495566677
C        0.9943767928   -0.5631389056    0.4556082282
H        0.2175956488   -0.1149158944   -0.1577181306
H        0.0034217315   -0.0748251454    2.2934683321
C        1.7453979085   -1.0948666235    4.1361303246
O        2.6008502046   -1.5892391563    4.8282333557
O        0.6573499088   -0.5109972470    4.6661220628
H        0.6999389110   -0.5653211222    5.6333332705
H        3.7687699509   -2.1642751462    2.6533679963
H        3.9668081928   -2.1948617632    0.1838600414
15   

H        2.2009831767   -1.1492762593   -1.2274090981
C        2.1103891695   -1.1418728980   -0.1446767496
C        3.1112084885   -1.7098773004    0.6492616299
C        2.9944059842   -1.7007232226    2.0452979503
C        1.8725229755   -1.1226126794    2.6688220250
C        0.8719837353   -0.5547463795    1.8522415199
C        0.9908381354   -0.5643533978    0.4584089948
H        0.2096741563   -0.1221313064   -0.1537022175
H       -0.0099691917   -0.1004083795    2.2971439155
C        1.7418525834   -1.1091454935    4.1372193448
O        2.5956212908   -1.6110535645    4.8255198551
O        0.6233568342   -0.5811941972    4.6668987331
H        0.7380839982   -0.4603478616    5.6215896631
H        3.7795795644   -2.1469062842    2.6513535722
H        3.9821301688   -2.1604584749    0.1822318285
15   

H        2.2026996898   -1.1255971551   -1.2237544276
C        2.1119348754   -1.1268810716   -0.1410066504
C        3.1182444373   -1.6906742983    0.6489069266
C        3.0011369443   -1.6930420698    2.0449203521
C        1.8732993825   -1.1310615445    2.6726770092
C        0.8668939939   -0.5679370384    1.8599347411
C        0.9863284788   -0.5656046840    0.4660954855
H        0.2005701473   -0.1274411930   -0.1430519786
H       -0.0207095712   -0.1274555133    2.3074056514
C        1.7425057022   -1.1297618481    4.1413487381
O        2.5948292523   -1.6432847721    4.8216789977
O        0.5999696414   -0.6453359559    4.6728183693
H        0.7515957899   -0.3386902404    5.5778783972
H        3.7903780252   -2.1366856690    2.6475812059
H        3.9934791366   -2.1295397441    0.1787778623
15   

H        2.2024854038   -1.1019375818   -1.2185550147
C        2.1119048615   -1.1140179868   -0.1358495780
C        3.1223044159   -1.6781118284    0.6485534992
C        3.0053618913   -1.6947160743    2.0444544143
C        1.8737119439   -1.1466491447    2.6777360889
C        0.8627498215   -0.5838407048    1.8704090690
C        0.9821295730   -0.5671793869    0.4766450963
H        0.1928291867   -0.1297570314   -0.1284589852
H       -0.0290757962   -0.1558051198    2.3213996856
C        1.7438508674   -1.1595768666    4.1464720475
O        2.5897002815   -1.6921276373    4.8182492012
O        0.5891191364   -0.6919566598    4.6844649821
H        0.7563617458   -0.2017551547    5.4991357891
H        3.7976028025   -2.1390556881    2.6427142238
H        4.0004606013   -2.1065258491    0.1742258010
15   

H        2.1953646538   -1.0663897107   -1.2108949258
C        2.1066682198   -1.0918966171   -0.1282505648
C        3.1239668861   -1.6550129412    0.6478128453
C        3.0094464132   -1.6892328031    2.0435221181
C        1.8734329091   -1.1600133477    2.6850126184
C        0.8549413842   -0.5989576943    1.8860772819
C        0.9721595800   -0.5643046279    0.4924006918
H        0.1772382072   -0.1287091153   -0.1066531130
H       -0.0417684131   -0.1876430517    2.3427176567
C        1.7466811696   -1.1926938506    4.1535312613
O        2.5937540428   -1.7314971790    4.8159724646
O        0.5843044840   -0.7355723178    4.7051138892
H        0.7466948565   -0.0720224771    5.3842213722
H        3.8068030566   -2.1332895694    2.6352648326
H        4.0054417087   -2.0694114629    0.1671738795
15   

H        2.1905530896   -1.0213777984   -1.1987894150
C        2.1017255899   -1.0645375259   -0.1166901578
C        3.1207601085   -1.6369235183    0.6502445249
C        3.0057363734   -1.6948482748    2.0450565119
C        1.8682774155   -1.1791113380    2.6946411989
C        0.8474485507   -0.6093524628    1.9051309030
C        0.9649150806   -0.5516486786    0.5121779073
H        0.1680591119   -0.1106882395   -0.0803914992
H       -0.0525464684   -0.2119800272    2.3675038507
C        1.7415560525   -1.2388603941    4.1617148102
O        2.5707986420   -1.8107868799    4.8154003260
O        0.6010662935   -0.7318610651    4.7354519092
H        0.7746081666    0.0716806668    5.2340629708
H        3.8038354671   -2.1467364938    2.6299719361
H        4.0036939511   -2.0406422553    0.1631601871
15   

H        2.1933840479   -0.9585776652   -1.1807837101
C        2.1027787423   -1.0221852044   -0.0998071214
C        3.1220347208   -1.6064581251    0.6578020404
C        3.0042650934   -1.6921063669    2.0508740440
C        1.8645724321   -1.1913402525    2.7078775091
C        0.8429122282   -0.6101873651    1.9280136966
C        0.9629588386   -0.5253038641    0.5366071776
H        0.1652650041   -0.0772766609   -0.0495670946
H       -0.0614236670   -0.2288762419    2.3953441563
C        1.7335516212   -1.2860274488    4.1720040923
O        2.5470794022   -1.8862187993    4.8167186007
O        0.6300193536   -0.7166803774    4.7707449260
H        0.8012632659    0.1859191574    5.0515072455
H        3.8016620243   -2.1543628481    2.6287705168
H        4.0068379935   -1.9987420247    0.1647066530
15   

H        2.1961056179   -0.8972013014   -1.1598401405
C        2.1040449332   -0.9792973904   -0.0801949435
C        3.1228036089   -1.5758619262    0.6684091882
C        3.0027485830   -1.6867970211    2.0594093755
C        1.8620081642   -1.1980324035    2.7233580057
C        0.8401447073   -0.6051481440    1.9526605871
C        0.9623492369   -0.4955630137    0.5631044768
H        0.1643483336   -0.0402769405   -0.0171114558
H       -0.0679712825   -0.2380945293    2.4240058103
C        1.7266546409   -1.3254933139    4.1840171593
O        2.5229916889   -1.9593575847    4.8163591587
O        0.6772039887   -0.6878346228    4.8066287560
H        0.8181736138    0.2612559474    4.8588873728
H        3.7989653061   -2.1597997659    2.6303685619
H        4.0085956976   -1.9589519118    0.1697918420
15   

H        2.1842904275   -0.8585632947   -1.1414683052
C        2.0943967752   -0.9525294190   -0.0625692241
C        3.1143896344   -1.5582378835    0.6768483212
C        2.9970470370   -1.6853238098    2.0665824097
C        1.8585879866   -1.2025937557    2.7386685644
C        0.8345106091   -0.6014840784    1.9771895959
C        0.9539641034   -0.4762284377    0.5886184884
H        0.1545095818   -0.0157728555    0.0144337508
H       -0.0748338417   -0.2435695934    2.4530363744
C        1.7265393064   -1.3498761132    4.1973771368
O        2.5034087052   -2.0224237029    4.8141474954
O        0.7378277358   -0.6540267079    4.8415011394
H        0.8070926336    0.2927333846    4.6857291610
H        3.7938489168   -2.1659182819    2.6305028877
H        3.9988898966   -1.9363311100    0.1720638673
15   

H        2.1519507296   -0.8483818755   -1.1305812695
C        2.0684066613   -0.9471843160   -0.0515705385
C        3.0908406980   -1.5603813122    0.6780520003
C        2.9819772803   -1.6937036861    2.0677299015
C        1.8505848073   -1.2086817933    2.7499163841
C        0.8228046932   -0.6013015566    1.9982719753
C        0.9337191164   -0.4703436458    0.6093683635
H        0.1321212923   -0.0054426397    0.0417324287
H       -0.0838814624   -0.2448932642    2.4799955444
C        1.7320799397   -1.3605367496    4.2090372779
O        2.4827995999   -2.0780554326    4.8083043997
O        0.8064534336   -0.6146942322    4.8726871738
H        0.7703461006    0.2910990003    4.5467632775
H        3.7807992731   -2.1795539050    2.6243900829
H        3.9708295237   -1.9392041585    0.1658906752
15   

H        2.1034316623   -0.8647288691   -1.1265604888
C        2.0299477403   -0.9618815515   -0.0466422811
C        3.0549685222   -1.5824785821    0.6727601445
C        2.9596165319   -1.7129547681    2.0635124891
C        1.8403940167   -1.2166589928    2.7574643226
C        0.8086395618   -0.6030533009    2.0161181364
C        0.9059099128   -0.4755913687    0.6256806822
H        0.1022886120   -0.0056242647    0.0650844459
H       -0.0911817525   -0.2394301799    2.5047684884
C        1.7446312744   -1.3600023303    4.2189677666
O        2.4629322401   -2.1234549509    4.8019628397
O        0.8796504269   -0.5710367319    4.8998210819
H        0.7136785513    0.2641547569    4.4462994831
H        3.7609931967   -2.2031262378    2.6127866235
H        3.9269239632   -1.9684210399    0.1521639602
15   

H        2.0483737100   -0.9004087244   -1.1277965086
C        1.9860132440   -0.9912908480   -0.0466178112
C        3.0102254961   -1.6234064726    0.6635127568
C        2.9298581781   -1.7445972025    2.0558595797
C        1.8278842900   -1.2264027447    2.7613006490
C        0.7957487560   -0.6018662079    2.0292943603
C        0.8776498483   -0.4847278071    0.6367657422
H        0.0748317837   -0.0057033674    0.0827149016
H       -0.0926440063   -0.2202686046    2.5243668314
C        1.7595380070   -1.3521456080    4.2260588572
O        2.4386596347   -2.1607815522    4.7957903969
O        0.9540626887   -0.5217672158    4.9195987469
H        0.6435407285    0.2201966115    4.3848134531
H        3.7315671558   -2.2416875389    2.5984808135
H        3.8706055518   -2.0242014050    0.1348845638
15   

H        1.9917915221   -0.9392917119   -1.1330658654
C        1.9428056198   -1.0198662814   -0.0503772063
C        2.9616870771   -1.6703965403    0.6501049474
C        2.8991581476   -1.7770340816    2.0443351942
C        1.8214339105   -1.2257538827    2.7626950521
C        0.7944338397   -0.5812690222    2.0399399065
C        0.8580568661   -0.4798261941    0.6450023178
H        0.0601674056    0.0153253294    0.0980783025
H       -0.0754946520   -0.1674587663    2.5406504345
C        1.7842938436   -1.3319329438    4.2312348889
O        2.4463763271   -2.1623277464    4.7902588936
O        1.0071194014   -0.4880788124    4.9361972834
H        0.5258321485    0.1307977126    4.3713620098
H        3.6984684152   -2.2865864826    2.5789349644
H        3.8049748986   -2.0954893645    0.1129515460
