15   

H        2.1271735853   -1.0610758718   -1.2209000654
C        1.9701880676   -1.0475304738   -0.1458256116
C        3.0517400423   -1.2090819064    0.7250415244
C        2.8496035073   -1.1921327329    2.1114852719
C        1.5750217493   -1.0076583079    2.6408529889
C        0.4892274051   -0.8565667331    1.7591057391
C        0.6850900935   -0.8725846702    0.3736021776
H       -0.1620524857   -0.7512158439   -0.2955417711
H       -0.5139387054   -0.7261739792    2.1592543162
C        1.3363139185   -1.0078945632    4.1002347776
O        0.2532049108   -1.1124393342    4.6203504509
O        2.4619677733   -0.8943830391    4.8444945228
H        2.1477966020   -0.9106829406    5.7603534696
H        3.7100954583   -1.3264422133    2.7621009930
H        4.0522035985   -1.3500578056    0.3259820838
15   

H        2.1246473463   -1.0335675391   -1.2187905035
C        1.9683865780   -1.0309925026   -0.1435297989
C        3.0460703901   -1.2339596159    0.7240858439
C        2.8439185366   -1.2315988433    2.1105081007
C        1.5758451323   -1.0141948099    2.6412102956
C        0.4920431899   -0.8312813438    1.7648196874
C        0.6874089565   -0.8324311302    0.3789791934
H       -0.1568539013   -0.6835922461   -0.2882415022
H       -0.5072725553   -0.6894835694    2.1703958122
C        1.3412519635   -1.0533571554    4.1018528964
O        0.3073808204   -1.3862309155    4.6242305881
O        2.4261717776   -0.7149026531    4.8376101309
H        2.1290431626   -0.7916060500    5.7560133107
H        3.6941522722   -1.4007107825    2.7666543099
H        4.0421658917   -1.3970849254    0.3225687385
15   

H        2.1177431016   -1.0081096577   -1.2164901195
C        1.9639218627   -1.0165900663   -0.1409080581
C        3.0381700333   -1.2616044425    0.7207711789
C        2.8382667866   -1.2736982318    2.1073376471
C        1.5785392440   -1.0245961847    2.6418248852
C        0.4961126200   -0.8062936739    1.7737735788
C        0.6889138679   -0.7926177804    0.3874299109
H       -0.1526154788   -0.6144555813   -0.2760297355
H       -0.4981077558   -0.6504706680    2.1861041094
C        1.3535862452   -1.0994281784    4.1052591957
O        0.4186322885   -1.6454844608    4.6319319426
O        2.3541349494   -0.5472876641    4.8298364655
H        2.0881460585   -0.6791026950    5.7514193172
H        3.6787827143   -1.4750823670    2.7669419941
H        4.0284889180   -1.4467075213    0.3145410702
15   

H        2.1067587195   -0.9837344859   -1.2155328181
C        1.9581488969   -1.0062315486   -0.1394204182
C        3.0296469387   -1.2973336420    0.7117965633
C        2.8360211088   -1.3272371152    2.0988945858
C        1.5870224546   -1.0499659896    2.6422061447
C        0.5058384106   -0.7862553316    1.7866920324
C        0.6923813653   -0.7543645554    0.3996199174
H       -0.1466354014   -0.5407649805   -0.2565032354
H       -0.4808957310   -0.6098540296    2.2079199362
C        1.3771912808   -1.1498826846    4.1105338262
O        0.5893811345   -1.8830960933    4.6473983084
O        2.2370597099   -0.3838133927    4.8190275781
H        2.0116156331   -0.5557709182    5.7446681775
H        3.6699106954   -1.5622609490    2.7556355227
H        4.0120815452   -1.5040915954    0.2969651720
15   

H        2.0896327211   -0.9507977076   -1.2157595178
C        1.9514566062   -0.9933206430   -0.1388611790
C        3.0217368160   -1.3390519280    0.6934669548
C        2.8415329041   -1.3943200049    2.0815640886
C        1.6068408550   -1.0943136274    2.6431597313
C        0.5275817073   -0.7671179314    1.8080124982
C        0.7008670730   -0.7096809279    0.4199554395
H       -0.1361632373   -0.4497560570   -0.2218173935
H       -0.4463830081   -0.5603795331    2.2442916914
C        1.4183718898   -1.2028539988    4.1181781231
O        0.8236936331   -2.0837055336    4.6786978889
O        2.0538788763   -0.2230849580    4.7977099794
H        1.8716501696   -0.4128128534    5.7292538176
H        3.6732220119   -1.6688497982    2.7254211123
H        3.9926307492   -1.5674594170    0.2631027969
15   

H        2.0780868918   -0.9098247739   -1.2148586069
C        1.9525835406   -0.9734706486   -0.1374505077
C        3.0178275906   -1.3854871712    0.6707002883
C        2.8537545594   -1.4680159714    2.0594546257
C        1.6377601395   -1.1415041076    2.6452017903
C        0.5679591510   -0.7298468967    1.8353317981
C        0.7247767052   -0.6452632519    0.4467129193
H       -0.1065118568   -0.3263710023   -0.1756232515
H       -0.3858865396   -0.4777537011    2.2914383253
C        1.4730089987   -1.2405544486    4.1258747246
O        1.1012532053   -2.2147593928    4.7218263265
O        1.7928662070   -0.0917310135    4.7602209447
H        1.6470275677   -0.2803550655    5.6983165420
H        3.6824125352   -1.7907054616    2.6845548241
H        3.9726394431   -1.6427916982    0.2210766005
15   

H        2.0619300985   -0.8790492211   -1.2142883954
C        1.9514689562   -0.9557136016   -0.1360818776
C        3.0114372626   -1.4250709076    0.6471003853
C        2.8664447572   -1.5247666222    2.0368281587
C        1.6710777304   -1.1693990617    2.6487218174
C        0.6126024600   -0.6836218042    1.8642054789
C        0.7500735228   -0.5820555797    0.4747114494
H       -0.0749028132   -0.2118183911   -0.1272486381
H       -0.3175966427   -0.3865707274    2.3416221996
C        1.5383119488   -1.2544280516    4.1318157707
O        1.4097146879   -2.2666544531    4.7662480239
O        1.5122970757   -0.0369474636    4.7172102421
H        1.4075155407   -0.2213767316    5.6616553128
H        3.6920747196   -1.8895830214    2.6426976610
H        3.9478265344   -1.7126185135    0.1774794168
15   

H        2.0487282462   -0.8846212117   -1.2172489309
C        1.9501732843   -0.9588596797   -0.1377205151
C        3.0022850087   -1.4686812114    0.6303329466
C        2.8726607065   -1.5653425127    2.0217252364
C        1.6979208442   -1.1710126480    2.6518016138
C        0.6503151902   -0.6382455272    1.8810805929
C        0.7728985023   -0.5398084346    0.4900044223
H       -0.0447276467   -0.1354387861   -0.0998982518
H       -0.2602934225   -0.3018337408    2.3702923477
C        1.5964290045   -1.2427548451    4.1339544843
O        1.7085418184   -2.2410864406    4.7950790157
O        1.2701381465   -0.0543681441    4.6902012451
H        1.2142206290   -0.2364167901    5.6393678077
H        3.6927049574   -1.9612305769    2.6159929304
H        3.9210358591   -1.7898442321    0.1478198220
15   

H        2.0333482812   -0.9131400676   -1.2227800582
C        1.9445723690   -0.9746812505   -0.1416054386
C        2.9880041749   -1.5117233144    0.6193108947
C        2.8713850995   -1.5919213787    2.0127836059
C        1.7174240984   -1.1528007744    2.6543384806
C        0.6776824671   -0.5944719808    1.8881685820
C        0.7885130352   -0.5127329081    0.4950169214
H       -0.0224195741   -0.0880496094   -0.0898373611
H       -0.2191299169   -0.2253045514    2.3794630735
C        1.6441545613   -1.2154775829    4.1344176728
O        1.9849076384   -2.1537229375    4.8074671940
O        1.0718715683   -0.1194503887    4.6837192010
H        1.0708233886   -0.2971074635    5.6354755465
H        3.6854929407   -2.0098007090    2.6006347349
H        3.8902880009   -1.8671374096    0.1297716948
15   

H        2.0177214852   -0.9530388493   -1.2296521413
C        1.9381291337   -0.9963334940   -0.1468788199
C        2.9725888618   -1.5530641651    0.6115626639
C        2.8683765349   -1.6096800419    2.0070876944
C        1.7361895746   -1.1234446828    2.6558132027
C        0.7023970354   -0.5507019699    1.8890971935
C        0.8022460515   -0.4928424240    0.4939286237
H       -0.0027081078   -0.0551395064   -0.0896012264
H       -0.1835731025   -0.1515387053    2.3766150946
C        1.6838699788   -1.1792633719    4.1339537702
O        2.2303402313   -2.0124054923    4.8120087637
O        0.9059706139   -0.2185098661    4.6851732373
H        0.9568782560   -0.3830018600    5.6380266503
H        3.6777040816   -2.0441231903    2.5899185142
H        3.8587785310   -1.9425880693    0.1185777893
15   

H        1.9967624411   -0.9985487903   -1.2355066851
C        1.9271956117   -1.0218994102   -0.1514283021
C        2.9532646396   -1.5945606485    0.6058808629
C        2.8626774277   -1.6251127168    2.0031200482
C        1.7537231703   -1.0925346466    2.6572694761
C        0.7245635615   -0.5100196187    1.8889142306
C        0.8119452970   -0.4783032603    0.4920856198
H        0.0122840906   -0.0302803150   -0.0909041617
H       -0.1498627060   -0.0810754708    2.3718312998
C        1.7167859944   -1.1395533839    4.1348693982
O        2.4373567390   -1.8226228019    4.8195694351
O        0.7649303208   -0.3497082265    4.6851518452
H        0.8588034051   -0.4876054406    5.6390230094
H        3.6683853067   -2.0734524204    2.5805920386
H        3.8229865092   -2.0170558432    0.1107123100
15   

H        1.9716838189   -1.0475018286   -1.2388639940
C        1.9132133689   -1.0499014683   -0.1538816173
C        2.9316319743   -1.6363231615    0.6029275434
C        2.8559176633   -1.6392787990    2.0013721641
C        1.7711758701   -1.0614683951    2.6583320889
C        0.7462428386   -0.4710201638    1.8892632667
C        0.8193502666   -0.4666598920    0.4912754746
H        0.0247347207   -0.0093774277   -0.0914311608
H       -0.1134979941   -0.0118416371    2.3706635397
C        1.7452535820   -1.0947464362    4.1362315885
O        2.6010901807   -1.5895811598    4.8276185173
O        0.6531705532   -0.5093032215    4.6816360792
H        0.7779856530   -0.6089903885    5.6367401882
H        3.6566943157   -2.0997823988    2.5761517938
H        3.7841533786   -2.0910886375    0.1064277905
15   

H        1.9428082952   -1.0963257770   -1.2386207548
C        1.8962408589   -1.0779958192   -0.1532147379
C        2.9074102523   -1.6776606906    0.6032335739
C        2.8472829559   -1.6530115717    2.0022310415
C        1.7877701653   -1.0308317694    2.6592356365
C        0.7669194459   -0.4332575354    1.8913605244
C        0.8243409499   -0.4558363116    0.4928024553
H        0.0346411988    0.0102407533   -0.0896116205
H       -0.0752432130    0.0541579130    2.3761403768
C        1.7680236527   -1.0466950957    4.1378279895
O        2.7114770644   -1.3258307833    4.8353945750
O        0.5776518400   -0.6891151046    4.6743416371
H        0.7186244255   -0.7416526405    5.6309316946
H        3.6406252660   -2.1237622347    2.5789886697
H        3.7419411595   -2.1639322599    0.1060330692
15   

H        1.9153642118   -1.1385418579   -1.2355605337
C        1.8803415165   -1.1010625982   -0.1502144372
C        2.8824905581   -1.7163504181    0.6063618086
C        2.8371716160   -1.6662333475    2.0052864486
C        1.8045831785   -0.9994947031    2.6597614547
C        0.7894774081   -0.3928856488    1.8941241926
C        0.8314072961   -0.4399932576    0.4956122507
H        0.0476220216    0.0360744276   -0.0866955140
H       -0.0337939906    0.1199071953    2.3852614486
C        1.7840533419   -0.9976994261    4.1397371598
O        2.7616547916   -1.0494982360    4.8426783265
O        0.5419986379   -0.8781404132    4.6641638676
H        0.6825561806   -0.8801594674    5.6221922220
H        3.6205535841   -2.1476980982    2.5866194625
H        3.6978778132   -2.2341902892    0.1092898012
15   

H        1.8897886760   -1.1733115983   -1.2310668133
C        1.8653336187   -1.1182843065   -0.1461792690
C        2.8555596268   -1.7517523613    0.6116652835
C        2.8236111673   -1.6785019759    2.0100256110
C        1.8194261163   -0.9679417384    2.6602269800
C        0.8133161180   -0.3486614190    1.8959988153
C        0.8408646012   -0.4178540325    0.4980396932
H        0.0649310752    0.0702590532   -0.0847938275
H        0.0095147344    0.1890705328    2.3926626934
C        1.7934632355   -0.9448832003    4.1430370010
O        2.7502839752   -0.7666230362    4.8516483970
O        0.5468175811   -1.0710109206    4.6534113988
H        0.6708117880   -1.0220526404    5.6123857461
H        3.5954065075   -2.1730652271    2.5954338428
H        3.6506069422   -2.3015120014    0.1159355014
15   

H        1.8737394373   -1.2017561545   -1.2273502600
C        1.8548441018   -1.1316265385   -0.1432235004
C        2.8264986779   -1.7872614126    0.6201856195
C        2.8015836751   -1.6941567534    2.0176222523
C        1.8244835839   -0.9416422295    2.6591073548
C        0.8359084557   -0.3018934569    1.8917938105
C        0.8555569526   -0.3900062946    0.4947757404
H        0.0933598768    0.1148181028   -0.0919272895
H        0.0524912409    0.2650287810    2.3883476543
C        1.7910699962   -0.8900048866    4.1451899715
O        2.6770102737   -0.4859195492    4.8509845332
O        0.5974141737   -1.2735532784    4.6513673628
H        0.6959135052   -1.1757498561    5.6094477453
H        3.5577836087   -2.2057505670    2.6082045540
H        3.6011896052   -2.3695058975    0.1293566783
15   

H        1.8759939909   -1.2160239336   -1.2250215790
C        1.8528322883   -1.1344746130   -0.1417757027
C        2.7940655035   -1.8190167557    0.6345525951
C        2.7635605273   -1.7112254378    2.0308891714
C        1.8088804705   -0.9196584023    2.6566764989
C        0.8545994788   -0.2450487617    1.8781747360
C        0.8795037843   -0.3474884649    0.4821827865
H        0.1425630458    0.1822965947   -0.1146954395
H        0.0943201229    0.3599497625    2.3654000709
C        1.7699864762   -0.8345619914    4.1451889787
O        2.5399579867   -0.2183024690    4.8314923067
O        0.7111668920   -1.4888436770    4.6709636704
H        0.7857337224   -1.3482373821    5.6257618045
H        3.4961622742   -2.2446378395    2.6313886179
H        3.5494040546   -2.4346845154    0.1544804838
15   

H        1.9106463413   -1.2132797901   -1.2245240818
C        1.8684753209   -1.1259018366   -0.1423056208
C        2.7633788498   -1.8466282476    0.6560121866
C        2.7082077333   -1.7317931572    2.0510529156
C        1.7676188039   -0.9061614372    2.6526979286
C        0.8706338787   -0.1813078393    1.8528038477
C        0.9201929961   -0.2911094936    0.4579934638
H        0.2238366342    0.2723218744   -0.1565536527
H        0.1363159489    0.4686377583    2.3215827341
C        1.7235761227   -0.7864501195    4.1403386036
O        2.3327034541    0.0170083868    4.7929140153
O        0.9060190786   -1.6989713654    4.7090252634
H        0.9623960255   -1.5211175229    5.6587941546
H        3.4062957104   -2.2911159057    2.6686159066
H        3.5024427629   -2.4949347866    0.1939343646
15   

H        1.9514651216   -1.2011992518   -1.2237352141
C        1.8846903839   -1.1143212859   -0.1427152235
C        2.7255968915   -1.8757490569    0.6763720586
C        2.6387926198   -1.7617487095    2.0698606993
C        1.7112838138   -0.9050314319    2.6491887415
C        0.8813311548   -0.1260148802    1.8284329858
C        0.9626094312   -0.2353226252    0.4350648048
H        0.3135600347    0.3652821105   -0.1958566507
H        0.1751526664    0.5660348766    2.2801703431
C        1.6627618949   -0.7599451383    4.1322855712
O        2.0749866191    0.1840223909    4.7509295601
O        1.1553144687   -1.8515625276    4.7458396712
H        1.1933856575   -1.6420391401    5.6901004580
H        3.2972819805   -2.3501702653    2.7037195808
H        3.4482951645   -2.5539636448    0.2316805957
15   

H        1.9884393214   -1.1981660258   -1.2223627694
C        1.8991901212   -1.1130832870   -0.1428237959
C        2.6940578996   -1.9055250574    0.6924247559
C        2.5786775198   -1.7936236373    2.0840394834
C        1.6632464380   -0.9118247996    2.6466060274
C        0.8864811796   -0.0964130341    1.8086645300
C        0.9964017929   -0.2033856494    0.4171694174
H        0.3858392667    0.4242437170   -0.2257662596
H        0.1995397117    0.6233053156    2.2471979413
C        1.5962172013   -0.7529411735    4.1231769655
O        1.7812278409    0.2768966197    4.7161987547
O        1.3883478618   -1.9219428775    4.7700344753
H        1.3884982396   -1.6850542503    5.7086977235
H        3.2045983442   -2.4055512032    2.7287754618
H        3.4041945414   -2.6057711232    0.2618750023
15   

H        2.0149314876   -1.1944360684   -1.2224247807
C        1.9110673395   -1.1123789973   -0.1439589548
C        2.6681612145   -1.9321751289    0.6994125385
C        2.5343907127   -1.8244161650    2.0897965145
C        1.6372851376   -0.9181310888    2.6452160037
C        0.8985796191   -0.0768995638    1.7970060953
C        1.0272173658   -0.1795075772    0.4069585963
H        0.4454682057    0.4694567213   -0.2415052536
H        0.2252789172    0.6605290683    2.2278617601
C        1.5411137294   -0.7595713251    4.1160844188
O        1.4896788121    0.2955801061    4.6937603843
O        1.5887132168   -1.9344688577    4.7856508281
H        1.5334057295   -1.6844650097    5.7193956532
H        3.1353331271   -2.4599816323    2.7355714293
H        3.3639672556   -2.6510263874    0.2761816698
15   

H        2.0401967639   -1.1866166255   -1.2236655075
C        1.9256941481   -1.1083636920   -0.1459942813
C        2.6489176536   -1.9537232377    0.7011597406
C        2.5017324774   -1.8517468180    2.0907549812
C        1.6270710150   -0.9213588956    2.6441673895
C        0.9177714160   -0.0597306624    1.7893952628
C        1.0602964509   -0.1566432369    0.4005045020
H        0.5019778316    0.5104156251   -0.2502097504
H        0.2537898249    0.6897961659    2.2143288307
C        1.4956788248   -0.7734899047    4.1107672385
O        1.2113706235    0.2520767369    4.6764130352
O        1.7686315867   -1.9065711369    4.7996539201
H        1.6502073911   -1.6594067370    5.7283727663
H        3.0806725261   -2.5125272725    2.7312405102
H        3.3291006187   -2.6893795766    0.2814062592
15   

H        2.0648546416   -1.1740151371   -1.2244974883
C        1.9406967089   -1.1009767002   -0.1475280332
C        2.6308866776   -1.9717979756    0.7007474060
C        2.4713770199   -1.8775965807    2.0896518253
C        1.6211151905   -0.9241232014    2.6435138155
C        0.9377966795   -0.0436201112    1.7849997549
C        1.0931463485   -0.1330593198    0.3971575516
H        0.5565642448    0.5511417965   -0.2540590340
H        0.2815477329    0.7154938632    2.2051743552
C        1.4546560578   -0.7934231178    4.1070663019
O        0.9511230189    0.1524037904    4.6606374231
O        1.9392661545   -1.8416818198    4.8143221028
H        1.7607562903   -1.6121214944    5.7380120418
H        3.0265197986   -2.5652936862    2.7226411135
H        3.2946106061   -2.7230502107    0.2822493878
15   

H        2.1248479116   -1.0886097562   -1.2217068590
C        1.9689205154   -1.0630879579   -0.1466950756
C        3.0551203790   -1.1833803850    0.7247592568
C        2.8547364967   -1.1505359610    2.1112145931
C        1.5758198306   -0.9981885517    2.6410089043
C        0.4868535459   -0.8776673483    1.7576335766
C        0.6811191487   -0.9097913676    0.3722463137
H       -0.1692853520   -0.8155215484   -0.2971323477
H       -0.5184873179   -0.7580303868    2.1557491208
C        1.3386134267   -0.9604966406    4.0999134626
O        0.2563915372   -0.8311031359    4.6169866066
O        2.4596394753   -1.0856136759    4.8494203518
H        2.1436198197   -1.0425286908    5.7637993781
H        3.7224387072   -1.2469562316    2.7588657527
H        4.0585607673   -1.3027877869    0.3261256710
