15   

H        2.1271734975   -1.0610761943   -1.2209000684
C        1.9701880063   -1.0475307106   -0.1458256112
C        3.0517400107   -1.2090820061    0.7250415191
C        2.8496035073   -1.1921327329    2.1114852719
C        1.5750217493   -1.0076583079    2.6408529889
C        0.4892273811   -0.8565668498    1.7591057522
C        0.6850900354   -0.8725849174    0.3736021893
H       -0.1620525657   -0.7512162009   -0.2955417516
H       -0.5139387216   -0.7261740942    2.1592543505
C        1.3363139185   -1.0078945632    4.1002347776
O        0.2532049108   -1.1124393342    4.6203504509
O        2.4619676937   -0.8943820897    4.8444944995
H        2.1477969248   -0.9106862013    5.7603535096
H        3.7100954651   -1.3264421043    2.7621010061
H        4.0522035676   -1.3500578656    0.3259820698
15   

H        2.1246472740   -1.0335678351   -1.2187905109
C        1.9683865302   -1.0309927319   -0.1435298030
C        3.0460703721   -1.2339597231    0.7240858399
C        2.8439185366   -1.2315988433    2.1105081007
C        1.5758451323   -1.0141948099    2.6412102956
C        0.4920431659   -0.8312814712    1.7648196919
C        0.6874089079   -0.8324313681    0.3789791963
H       -0.1568539752   -0.6835925647   -0.2882414879
H       -0.5072725750   -0.6894836936    2.1703958300
C        1.3412519635   -1.0533571554    4.1018528964
O        0.3073808204   -1.3862309155    4.6242305881
O        2.4261711568   -0.7149005947    4.8376100814
H        2.1290452347   -0.7916129186    5.7560133894
H        3.6941522636   -1.4007106154    2.7666543598
H        4.0421658792   -1.3970849917    0.3225687297
15   

H        2.1177429682   -1.0081101403   -1.2164901327
C        1.9639217800   -1.0165904217   -0.1409080643
C        3.0381699998   -1.2616046057    0.7207711713
C        2.8382667866   -1.2736982318    2.1073376471
C        1.5785392440   -1.0245961847    2.6418248852
C        0.4961125863   -0.8062938332    1.7737735880
C        0.6889137908   -0.7926181287    0.3874299128
H       -0.1526155854   -0.6144560480   -0.2760297285
H       -0.4981077664   -0.6504707778    2.1861041551
C        1.3535862452   -1.0994281784    4.1052591957
O        0.4186322885   -1.6454844608    4.6319319426
O        2.3541332622   -0.5472846110    4.8298364257
H        2.0881512017   -0.6791123488    5.7514194334
H        3.6787827243   -1.4750821332    2.7669420407
H        4.0284888867   -1.4467076336    0.3145410420
15   

H        2.1067586260   -0.9837346582   -1.2155328265
C        1.9581488399   -1.0062316728   -0.1394204203
C        3.0296469095   -1.2973337112    0.7117965530
C        2.8360211088   -1.3272371152    2.0988945858
C        1.5870224546   -1.0499659896    2.6422061447
C        0.5058384041   -0.7862553206    1.7866920543
C        0.6923813239   -0.7543646286    0.3996199334
H       -0.1466354577   -0.5407650462   -0.2565031990
H       -0.4808957002   -0.6098539237    2.2079200172
C        1.3771912808   -1.1498826846    4.1105338262
O        0.5893811345   -1.8830960933    4.6473983084
O        2.2370566607   -0.3838099911    4.8190275511
H        2.0116234906   -0.5557802209    5.7446684498
H        3.6699107265   -1.5622608541    2.7556354989
H        4.0120815038   -1.5040916628    0.2969651269
15   

H        2.0896327574   -0.9507974138   -1.2157594911
C        1.9514566413   -0.9933204112   -0.1388611551
C        3.0217368203   -1.3390518478    0.6934669572
C        2.8415329041   -1.3943200049    2.0815640886
C        1.6068408550   -1.0943136274    2.6431597313
C        0.5275817679   -0.7671176666    1.8080125341
C        0.7008671416   -0.7096805794    0.4199554795
H       -0.1361631333   -0.4497555298   -0.2218173282
H       -0.4463828923   -0.5603791217    2.2442917902
C        1.4183718898   -1.2028539988    4.1181781231
O        0.8236936331   -2.0837055336    4.6786978889
O        2.0538754994   -0.2230826912    4.7977098436
H        1.8716568107   -0.4128175492    5.7292542243
H        3.6732220129   -1.6688499269    2.7254210434
H        3.9926307296   -1.5674593844    0.2631027661
15   

H        2.0780868346   -0.9098249330   -1.2148586196
C        1.9525834985   -0.9734707524   -0.1374505145
C        3.0178275669   -1.3854872208    0.6707002829
C        2.8537545594   -1.4680159714    2.0594546257
C        1.6377601395   -1.1415041076    2.6452017903
C        0.5679591346   -0.7298469402    1.8353318003
C        0.7247766673   -0.6452633487    0.4467129147
H       -0.1065119110   -0.3263711459   -0.1756232575
H       -0.3858865505   -0.4777537480    2.2914383411
C        1.4730089987   -1.2405544486    4.1258747246
O        1.1012532053   -2.2147593928    4.7218263265
O        1.7928661122   -0.0917309811    4.7602209386
H        1.6470277944   -0.2803551316    5.6983165683
H        3.6824125482   -1.7907054325    2.6845548217
H        3.9726394126   -1.6427917487    0.2210765863
15   

H        2.0619299486   -0.8790496442   -1.2142884398
C        1.9514688375   -0.9557139348   -0.1360819128
C        3.0114372183   -1.4250710414    0.6471003715
C        2.8664447572   -1.5247666222    2.0368281587
C        1.6710777304   -1.1693990617    2.6487218174
C        0.6126023590   -0.6836220701    1.8642054539
C        0.7500733731   -0.5820559979    0.4747114079
H       -0.0749030267   -0.2118190055   -0.1272487135
H       -0.3175968056   -0.3865711008    2.3416221070
C        1.5383119488   -1.2544280516    4.1318157707
O        1.4097146879   -2.2666544531    4.7662480239
O        1.5123007480   -0.0369476067    4.7172106739
H        1.4075078489   -0.2213766045    5.6616545375
H        3.6920747619   -1.8895828438    2.6426977153
H        3.9478265208   -1.7126185773    0.1774794209
15   

H        2.0487282838   -0.8846210118   -1.2172488928
C        1.9501733026   -0.9588595521   -0.1377204841
C        3.0022850146   -1.4686811536    0.6303329542
C        2.8726607065   -1.5653425127    2.0217252364
C        1.6979208442   -1.1710126480    2.6518016138
C        0.6503152188   -0.6382454274    1.8810806456
C        0.7728985373   -0.5398082858    0.4900044769
H       -0.0447275735   -0.1354385544   -0.0998981975
H       -0.2602933568   -0.3018335633    2.3702923936
C        1.5964290045   -1.2427548451    4.1339544843
O        1.7085418184   -2.2410864406    4.7950790157
O        1.2701424753   -0.0543672235    4.6902017549
H        1.2142094505   -0.2364195023    5.6393667092
H        3.6927049511   -1.9612305435    2.6159929664
H        3.9210358812   -1.7898441385    0.1478198365
15   

H        2.0333481587   -0.9131400091   -1.2227800157
C        1.9445722903   -0.9746811904   -0.1416053930
C        2.9880041146   -1.5117233079    0.6193108899
C        2.8713850995   -1.5919213787    2.0127836059
C        1.7174240984   -1.1528007744    2.6543384806
C        0.6776825220   -0.5944717990    1.8881686852
C        0.7885130253   -0.5127327328    0.4950170231
H       -0.0224195515   -0.0880493133   -0.0898372172
H       -0.2191297256   -0.2253041780    2.3794632687
C        1.6441545613   -1.2154775829    4.1344176728
O        1.9849076384   -2.1537229375    4.8074671940
O        1.0718747916   -0.1194488893    4.6837195156
H        1.0708133472   -0.2971123733    5.6354746513
H        3.6854929555   -2.0098006867    2.6006347331
H        3.8902879143   -1.8671374255    0.1297716572
15   

H        2.0177214473   -0.9530387900   -1.2296521158
C        1.9381291017   -0.9963334495   -0.1468787945
C        2.9725888327   -1.5530641615    0.6115626614
C        2.8683765349   -1.6096800419    2.0070876944
C        1.7361895746   -1.1234446828    2.6558132027
C        0.7023970798   -0.5507018514    1.8890972541
C        0.8022460623   -0.4928423066    0.4939286795
H       -0.0027080639   -0.0551393051   -0.0896011540
H       -0.1835729552   -0.1515384667    2.3766152362
C        1.6838699788   -1.1792633719    4.1339537702
O        2.2303402313   -2.0124054923    4.8120087637
O        0.9059725834   -0.2185083742    4.6851733903
H        0.9568719873   -0.3830067044    5.6380261517
H        3.6777040851   -2.0441231712    2.5899185250
H        3.8587784887   -1.9425880670    0.1185777644
15   

H        1.9967625093   -0.9985485755   -1.2355066636
C        1.9271956579   -1.0218992592   -0.1514282838
C        2.9532646538   -1.5945605857    0.6058808636
C        2.8626774277   -1.6251127168    2.0031200482
C        1.7537231703   -1.0925346466    2.6572694761
C        0.7245636195   -0.5100194900    1.8889142632
C        0.8119453666   -0.4783030642    0.4920856545
H        0.0122842073   -0.0302800107   -0.0909041031
H       -0.1498625936   -0.0810752712    2.3718313710
C        1.7167859944   -1.1395533839    4.1348693982
O        2.4373567390   -1.8226228019    4.8195694351
O        0.7649311288   -0.3497072911    4.6851519016
H        0.8588008529   -0.4876083884    5.6390228356
H        3.6683852939   -2.0734524564    2.5805920288
H        3.8229865136   -2.0170557877    0.1107123003
15   

H        1.9716838375   -1.0475018164   -1.2388639934
C        1.9132133799   -1.0499014614   -0.1538816174
C        2.9316319817   -1.6363231611    0.6029275443
C        2.8559176633   -1.6392787990    2.0013721641
C        1.7711758701   -1.0614683951    2.6583320889
C        0.7462428407   -0.4710201605    1.8892632674
C        0.8193502754   -0.4666598841    0.4912754751
H        0.0247347338   -0.0093774142   -0.0914311623
H       -0.1134979943   -0.0118416392    2.3706635422
C        1.7452535820   -1.0947464362    4.1362315885
O        2.6010901807   -1.5895811598    4.8276185173
O        0.6531705578   -0.5093032154    4.6816360797
H        0.7779856663   -0.6089903760    5.6367401886
H        3.6566943105   -2.0997824005    2.5761517997
H        3.7841533881   -2.0910886441    0.1064277974
15   

H        1.9428082957   -1.0963258075   -1.2386207499
C        1.8962408528   -1.0779958364   -0.1532147328
C        2.9074102493   -1.6776607017    0.6032335792
C        2.8472829559   -1.6530115717    2.0022310415
C        1.7877701653   -1.0308317694    2.6592356365
C        0.7669194235   -0.4332575734    1.8913605353
C        0.8243409315   -0.4558363423    0.4928024646
H        0.0346411641    0.0102407050   -0.0896116021
H       -0.0752432621    0.0541578099    2.3761404061
C        1.7680236527   -1.0466950957    4.1378279895
O        2.7114770644   -1.3258307833    4.8353945750
O        0.5776514896   -0.6891162356    4.6743416107
H        0.7186255846   -0.7416487671    5.6309317194
H        3.6406252533   -2.1237622469    2.5789886775
H        3.7419411513   -2.1639322980    0.1060330919
15   

H        1.9153641684   -1.1385417497   -1.2355605077
C        1.8803414785   -1.1010625352   -0.1502144091
C        2.8824905587   -1.7163503441    0.6063618041
C        2.8371716160   -1.6662333475    2.0052864486
C        1.8045831785   -0.9994947031    2.6597614547
C        0.7894773277   -0.3928857444    1.8941242528
C        0.8314072001   -0.4399933070    0.4956123082
H        0.0476218672    0.0360743020   -0.0866954417
H       -0.0337941217    0.1199069412    2.3852615824
C        1.7840533419   -0.9976994261    4.1397371598
O        2.7616547916   -1.0494982360    4.8426783265
O        0.5419984318   -0.8781427734    4.6641638970
H        0.6825569575   -0.8801513410    5.6221921317
H        3.6205535615   -2.1476981185    2.5866194774
H        3.6978778298   -2.2341901636    0.1092897682
15   

H        1.8897886760   -1.1733114518   -1.2310667872
C        1.8653336070   -1.1182842133   -0.1461792399
C        2.8555596294   -1.7517522934    0.6116652804
C        2.8236111673   -1.6785019759    2.0100256110
C        1.8194261163   -0.9679417384    2.6602269800
C        0.8133160351   -0.3486615154    1.8959988854
C        0.8408645385   -0.4178540340    0.4980397566
H        0.0649309862    0.0702590195   -0.0847937561
H        0.0095145712    0.1890702488    2.3926628192
C        1.7934632355   -0.9448832003    4.1430370010
O        2.7502839752   -0.7666230362    4.8516483970
O        0.5468180274   -1.0710144813    4.6534115545
H        0.6708106077   -1.0220415461    5.6123853662
H        3.5954064862   -2.1730652551    2.5954338502
H        3.6506069532   -2.3015119072    0.1159354823
15   

H        1.8737394998   -1.2017560670   -1.2273502537
C        1.8548441450   -1.1316264721   -0.1432234925
C        2.8264987009   -1.7872613844    0.6201856203
C        2.8015836751   -1.6941567534    2.0176222523
C        1.8244835839   -0.9416422295    2.6591073548
C        0.8359084382   -0.3018934728    1.8917938389
C        0.8555569742   -0.3900062569    0.4947757592
H        0.0933599100    0.1148181312   -0.0919272945
H        0.0524911720    0.2650287018    2.3883476553
C        1.7910699962   -0.8900048866    4.1451899715
O        2.6770102737   -0.4859195492    4.8509845332
O        0.5974156858   -1.2735574326    4.6513677038
H        0.6959098451   -1.1757388357    5.6094470706
H        3.5577835487   -2.2057506166    2.6082045929
H        3.6011896182   -2.3695058938    0.1293566887
15   

H        1.8759944019   -1.2160234526   -1.2250216089
C        1.8528325878   -1.1344742466   -0.1417757262
C        2.7940656320   -1.8190166011    0.6345525878
C        2.7635605273   -1.7112254378    2.0308891714
C        1.8088804705   -0.9196584023    2.6566764989
C        0.8545996758   -0.2450485101    1.8781747181
C        0.8795041251   -0.3474880435    0.4821827573
H        0.1425635380    0.1822971997   -0.1146954912
H        0.0943203703    0.3599501163    2.3653999859
C        1.7699864762   -0.8345619914    4.1451889787
O        2.5399579867   -0.2183024690    4.8314923067
O        0.7111689660   -1.4888467407    4.6709640040
H        0.7857295451   -1.3482309573    5.6257612286
H        3.4961621213   -2.2446379951    2.6313886714
H        3.5494041481   -2.4346844076    0.1544804876
15   

H        1.9106464755   -1.2132796882   -1.2245240963
C        1.8684754157   -1.1259017613   -0.1423056336
C        2.7633788807   -1.8466282356    0.6560121876
C        2.7082077333   -1.7317931572    2.0510529156
C        1.7676188039   -0.9061614372    2.6526979286
C        0.8706339326   -0.1813077827    1.8528038338
C        0.9201931100   -0.2911093892    0.4579934440
H        0.2238368094    0.2723220410   -0.1565536866
H        0.1363160191    0.4686378405    2.3215827122
C        1.7235761227   -0.7864501195    4.1403386036
O        2.3327034541    0.0170083868    4.7929140153
O        0.9060189781   -1.6989712816    4.7090252507
H        0.9623961619   -1.5211176361    5.6587941636
H        3.4062956795   -2.2911159395    2.6686159107
H        3.5024427789   -2.4949348044    0.1939343811
15   

H        1.9514646173   -1.2011996698   -1.2237351984
C        1.8846900201   -1.1143215975   -0.1427152059
C        2.7255967329   -1.8757491746    0.6763720531
C        2.6387926198   -1.7617487095    2.0698606993
C        1.7112838138   -0.9050314319    2.6491887415
C        0.8813308855   -0.1260151415    1.8284330208
C        0.9626090009   -0.2353230185    0.4350648434
H        0.3135594009    0.3652815324   -0.1958565786
H        0.1751522990    0.5660344824    2.2801704370
C        1.6627618949   -0.7599451383    4.1322855712
O        2.0749866191    0.1840223909    4.7509295601
O        1.1553108433   -1.8515609119    4.7458395235
H        1.1933933246   -1.6420423526    5.6901009279
H        3.2972821325   -2.3501701530    2.7037195142
H        3.4482950266   -2.5539637161    0.2316805520
15   

H        1.9884391020   -1.1981661496   -1.2223627668
C        1.8991899813   -1.1130833769   -0.1428237872
C        2.6940578310   -1.9055250928    0.6924247498
C        2.5786775198   -1.7936236373    2.0840394834
C        1.6632464380   -0.9118247996    2.6466060274
C        0.8864810771   -0.0964131221    1.8086645498
C        0.9964016339   -0.2033857678    0.4171694358
H        0.3858390168    0.4242435220   -0.2257662305
H        0.1995395423    0.6233051325    2.2471980179
C        1.5962172013   -0.7529411735    4.1231769655
O        1.7812278409    0.2768966197    4.7161987547
O        1.3883433451   -1.9219421025    4.7700343678
H        1.3885102420   -1.6850559362    5.7086982391
H        3.2045983412   -2.4055512181    2.7287754319
H        3.4041944439   -2.6057711626    0.2618749603
15   

H        2.0149316282   -1.1944358778   -1.2224247738
C        1.9110674606   -1.1123788524   -0.1439589471
C        2.6681612779   -1.9321750544    0.6994125371
C        2.5343907127   -1.8244161650    2.0897965145
C        1.6372851376   -0.9181310888    2.6452160037
C        0.8985796715   -0.0768995116    1.7970061111
C        1.0272174736   -0.1795074483    0.4069586141
H        0.4454683203    0.4694568765   -0.2415052164
H        0.2252789384    0.6605290712    2.2278618144
C        1.5411137294   -0.7595713251    4.1160844188
O        1.4896788121    0.2955801061    4.6937603843
O        1.5887097234   -1.9344690537    4.7856506841
H        1.5334166450   -1.6844642218    5.7193961015
H        3.1353329729   -2.4599817260    2.7355714683
H        3.3639672889   -2.6510263273    0.2761816459
15   

H        2.0401965833   -1.1866167499   -1.2236655139
C        1.9256940366   -1.1083637672   -0.1459942832
C        2.6489176037   -1.9537232744    0.7011597316
C        2.5017324774   -1.8517468180    2.0907549812
C        1.6270710150   -0.9213588956    2.6441673895
C        0.9177713752   -0.0597306863    1.7893952738
C        1.0602963408   -0.1566433057    0.4005045065
H        0.5019776545    0.5104155046   -0.2502097415
H        0.2537897726    0.6897961224    2.2143288694
C        1.4956788248   -0.7734899047    4.1107672385
O        1.2113706235    0.2520767369    4.6764130352
O        1.7686295525   -1.9065716946    4.7996537899
H        1.6502143809   -1.6594048155    5.7283731280
H        3.0806724735   -2.5125272749    2.7312405509
H        3.3291005407   -2.6893796263    0.2814062218
15   

H        2.0648547238   -1.1740151622   -1.2244974896
C        1.9406967715   -1.1009767117   -0.1475280380
C        2.6308867068   -1.9717979943    0.7007474163
C        2.4713770199   -1.8775965807    2.0896518253
C        1.6211151905   -0.9241232014    2.6435138155
C        0.9377967111   -0.0436201049    1.7849997332
C        1.0931464116   -0.1330593197    0.3971575291
H        0.5565643222    0.5511417953   -0.2540590720
H        0.2815477442    0.7154938609    2.2051743153
C        1.4546560578   -0.7934231178    4.1070663019
O        0.9511230189    0.1524037904    4.6606374231
O        1.9392652304   -1.8416822959    4.8143220240
H        1.7607590405   -1.6121201132    5.7380122107
H        3.0265197448   -2.5652937030    2.7226411418
H        3.2946106136   -2.7230502639    0.2822494248
15   

H        2.1248479272   -1.0886096847   -1.2217068553
C        1.9689205241   -1.0630879104   -0.1466950722
C        3.0551203871   -1.1833803657    0.7247592588
C        2.8547364967   -1.1505359610    2.1112145931
C        1.5758198306   -0.9981885517    2.6410089043
C        0.4868535437   -0.8776673284    1.7576335800
C        0.6811191543   -0.9097913208    0.3722463159
H       -0.1692853437   -0.8155214847   -0.2971323466
H       -0.5184873229   -0.7580303687    2.1557491260
C        1.3386134267   -0.9604966406    4.0999134626
O        0.2563915372   -0.8311031359    4.6169866066
O        2.4596394785   -1.0856136638    4.8494203482
H        2.1436198273   -1.0425286658    5.7637993745
H        3.7224387003   -1.2469562458    2.7588657557
H        4.0585607783   -1.3027877623    0.3261256772
