15   

H        2.1271730232   -1.0610750834   -1.2209014085
C        1.9701895924   -1.0475287078   -0.1458266639
C        3.0517428527   -1.2090816368    0.7250384871
C        2.8496089340   -1.1921315220    2.1114825651
C        1.5750277870   -1.0076546219    2.6408534493
C        0.4892325578   -0.8565612745    1.7591072442
C        0.6850929574   -0.8725802542    0.3736033840
H       -0.1620506112   -0.7512103555   -0.2955391207
H       -0.5139330188   -0.7261666612    2.1592566057
C        1.3363210858   -1.0078906867    4.1002309048
O        0.2532050539   -1.1124340541    4.6203452440
O        2.4619738233   -0.8943854983    4.8444933796
H        2.1477988662   -0.9106651968    5.7603514225
H        3.7101017097   -1.3264424796    2.7620969219
H        4.0522053790   -1.3500596538    0.3259772219
15   

H        2.1246497724   -1.0335574081   -1.2187924126
C        1.9683910234   -1.0309815576   -0.1435314171
C        3.0460756007   -1.2339520149    0.7240822981
C        2.8439259868   -1.2315912278    2.1105048385
C        1.5758537613   -1.0141836917    2.6412106212
C        0.4920515636   -0.8312662192    1.7648206859
C        0.6874150795   -0.8324162724    0.3789798885
H       -0.1568485878   -0.6835752166   -0.2882393054
H       -0.5072636438   -0.6894663552    2.1703974674
C        1.3412581693   -1.0533494998    4.1018494937
O        0.3073782575   -1.3862224383    4.6242210238
O        2.4261774992   -0.7149078492    4.8376133574
H        2.1290270826   -0.7915559954    5.7560141199
H        3.6941598863   -1.4007067876    2.7666499474
H        4.0421698725   -1.3970806517    0.3225634959
15   

H        2.1177453166   -1.0080957021   -1.2164918013
C        1.9639257977   -1.0165757842   -0.1409094922
C        3.0381743834   -1.2615940835    0.7207679086
C        2.8382729610   -1.2736887314    2.1073345668
C        1.5785464729   -1.0245832249    2.6418253198
C        0.4961199941   -0.8062762831    1.7737745264
C        0.6889194288   -0.7925998768    0.3874306041
H       -0.1526104706   -0.6144353275   -0.2760277130
H       -0.4980999165   -0.6504518336    2.1861056484
C        1.3535898644   -1.0994205047    4.1052576715
O        0.4186272776   -1.6454773707    4.6319184925
O        2.3541387482   -0.5472938079    4.8298452319
H        2.0880903694   -0.6790149304    5.7514243260
H        3.6787885563   -1.4750772576    2.7669380736
H        4.0284920346   -1.4467004561    0.3145362964
15   

H        2.1067610429   -0.9837240923   -1.2155332906
C        1.9581517444   -1.0062206519   -0.1394208094
C        3.0296496445   -1.2973250238    0.7117955118
C        2.8360243652   -1.3272288295    2.0988935466
C        1.5870257975   -1.0499551465    2.6422064415
C        0.5058421993   -0.7862422837    1.7866922956
C        0.6923849143   -0.7543514485    0.3996201327
H       -0.1466317917   -0.5407508750   -0.2565027744
H       -0.4808919699   -0.6098406722    2.2079199691
C        1.3771931461   -1.1498765936    4.1105319093
O        0.5893773061   -1.8830917488    4.6473898020
O        2.2370629555   -0.3838146350    4.8190321062
H        2.0115221247   -0.5556675149    5.7446685549
H        3.6699132544   -1.5622555764    2.7556344507
H        4.0120835874   -1.5040852302    0.2969636679
15   

H        2.0896333919   -0.9507914095   -1.2157596761
C        1.9514579124   -0.9933130708   -0.1388612069
C        3.0217382606   -1.3390449255    0.6934664770
C        2.8415350846   -1.3943120820    2.0815637010
C        1.6068433651   -1.0943036303    2.6431602318
C        0.5275841527   -0.7671075711    1.8080131094
C        0.7008689768   -0.7096716933    0.4199559165
H       -0.1361614896   -0.4497470050   -0.2218167899
H       -0.4463805778   -0.5603690473    2.2442921592
C        1.4183744819   -1.2028470139    4.1181755102
O        0.8236908824   -2.0837035743    4.6786892923
O        2.0538830139   -0.2230835692    4.7977141476
H        1.8715625785   -0.4127541810    5.7292517145
H        3.6732239399   -1.6688430870    2.7254206338
H        3.9926316413   -1.5674540835    0.2631019554
15   

H        2.0780868256   -0.9098249245   -1.2148586235
C        1.9525834909   -0.9734707609   -0.1374505199
C        3.0178275599   -1.3854872253    0.6707002788
C        2.8537545594   -1.4680159714    2.0594546257
C        1.6377601395   -1.1415041076    2.6452017903
C        0.5679591231   -0.7298469803    1.8353317920
C        0.7247766560   -0.6452633798    0.4467129079
H       -0.1065119188   -0.3263711807   -0.1756232709
H       -0.3858865760   -0.4777538153    2.2914383136
C        1.4730089987   -1.2405544486    4.1258747246
O        1.1012532053   -2.2147593928    4.7218263265
O        1.7928669211   -0.0917312482    4.7602210137
H        1.6470277605   -0.2803551278    5.6983165667
H        3.6824125530   -1.7907054168    2.6845548242
H        3.9726394018   -1.6427917540    0.2210765741
15   

H        2.0619298502   -0.8790482168   -1.2142881998
C        1.9514688311   -0.9557128455   -0.1360816870
C        3.0114371520   -1.4250705185    0.6471003835
C        2.8664447572   -1.5247666222    2.0368281587
C        1.6710777304   -1.1693990617    2.6487218174
C        0.6126025134   -0.6836213752    1.8642058036
C        0.7500734737   -0.5820548020    0.4747118026
H       -0.0749029079   -0.2118173339   -0.1272480501
H       -0.3175963365   -0.3865702607    2.3416230998
C        1.5383119488   -1.2544280516    4.1318157707
O        1.4097146879   -2.2666544531    4.7662480239
O        1.5122984028   -0.0369473746    4.7172102332
H        1.4076208222   -0.2213792389    5.6616663114
H        3.6920747116   -1.8895835515    2.6426973051
H        3.9478262838   -1.7126181794    0.1774791736
15   

H        2.0487278361   -0.8846201647   -1.2172486834
C        1.9501730563   -0.9588588808   -0.1377202678
C        3.0022848465   -1.4686807671    0.6303329416
C        2.8726607065   -1.5653425127    2.0217252364
C        1.6979208442   -1.1710126480    2.6518016138
C        0.6503151243   -0.6382453066    1.8810810084
C        0.7728983097   -0.5398077768    0.4900048738
H       -0.0447279913   -0.1354380200   -0.0998975190
H       -0.2602933115   -0.3018339095    2.3702935182
C        1.5964290045   -1.2427548451    4.1339544843
O        1.7085418184   -2.2410864406    4.7950790157
O        1.2701392220   -0.0543676418    4.6902010385
H        1.2143576001   -0.2363845890    5.6393816480
H        3.6927048947   -1.9612312179    2.6159925444
H        3.9210355066   -1.7898438683    0.1478195129
15   

H        2.0333477595   -0.9131398002   -1.2227799183
C        1.9445720429   -0.9746810291   -0.1416052863
C        2.9880040017   -1.5117231104    0.6193108783
C        2.8713850995   -1.5919213787    2.0127836059
C        1.7174240984   -1.1528007744    2.6543384806
C        0.6776822017   -0.5944722929    1.8881688491
C        0.7885126315   -0.5127330064    0.4950172075
H       -0.0224202613   -0.0880499980   -0.0898368924
H       -0.2191302783   -0.2253056384    2.3794638725
C        1.6441545613   -1.2154775829    4.1344176728
O        1.9849076384   -2.1537229375    4.8074671940
O        1.0718717579   -0.1194500468    4.6837189296
H        1.0709328506   -0.2970541376    5.6354852503
H        3.6854929096   -2.0098010828    2.6006344843
H        3.8902876998   -1.8671372314    0.1297714614
15   

H        2.0177211605   -0.9530390117   -1.2296521101
C        1.9381289171   -0.9963335993   -0.1468787786
C        2.9725887828   -1.5530641204    0.6115626528
C        2.8683765349   -1.6096800419    2.0070876944
C        1.7361895746   -1.1234446828    2.6558132027
C        0.7023967520   -0.5507024426    1.8890972702
C        0.8022456988   -0.4928428552    0.4939287007
H       -0.0027087206   -0.0551403413   -0.0896010966
H       -0.1835736424   -0.1515399136    2.3766153698
C        1.6838699788   -1.1792633719    4.1339537702
O        2.2303402313   -2.0124054923    4.8120087637
O        0.9059701593   -0.2185100695    4.6851730609
H        0.9569416185   -0.3829527769    5.6380315557
H        3.6777040651   -2.0441233329    2.5899184191
H        3.8587784113   -1.9425880112    0.1185776909
15   

H        1.9967623487   -0.9985488368   -1.2355066755
C        1.9271955556   -1.0218994411   -0.1514282910
C        2.9532646342   -1.5945606140    0.6058808603
C        2.8626774277   -1.6251127168    2.0031200482
C        1.7537231703   -1.0925346466    2.6572694761
C        0.7245634298   -0.5100198504    1.8889142429
C        0.8119451584   -0.4783034594    0.4920856367
H        0.0122838351   -0.0302807084   -0.0909041263
H       -0.1498630092   -0.0810760621    2.3718313387
C        1.7167859944   -1.1395533839    4.1348693982
O        2.4373567390   -1.8226228019    4.8195694351
O        0.7649297343   -0.3497088646    4.6851517757
H        0.8588267308   -0.4875782689    5.6390246035
H        3.6683852874   -2.0734524919    2.5805920075
H        3.8229864924   -2.0170558019    0.1107122850
15   

H        1.9716836737   -1.0475021095   -1.2388640054
C        1.9132132645   -1.0499016648   -0.1538816254
C        2.9316319265   -1.6363232593    0.6029275387
C        2.8559176633   -1.6392787990    2.0013721641
C        1.7711758701   -1.0614683951    2.6583320889
C        0.7462427916   -0.4710202542    1.8892632660
C        0.8193501640   -0.4666600817    0.4912754702
H        0.0247345680   -0.0093777019   -0.0914311636
H       -0.1134980510   -0.0118417575    2.3706635499
C        1.7452535820   -1.0947464362    4.1362315885
O        2.6010901807   -1.5895811598    4.8276185173
O        0.6531705648   -0.5093032110    4.6816360814
H        0.7779857023   -0.6089903498    5.6367401876
H        3.6566943465   -2.0997823405    2.5761517977
H        3.7841533291   -2.0910887447    0.1064277890
15   

H        1.9428083057   -1.0963256921   -1.2386207470
C        1.8962408752   -1.0779957525   -0.1532147295
C        2.9074102185   -1.6776607243    0.6032335731
C        2.8472829559   -1.6530115717    2.0022310415
C        1.7877701653   -1.0308317694    2.6592356365
C        0.7669196014   -0.4332572500    1.8913605413
C        0.8243410897   -0.4558360374    0.4928024733
H        0.0346414684    0.0102412756   -0.0896115807
H       -0.0752428231    0.0541585832    2.3761404299
C        1.7680236527   -1.0466950957    4.1378279895
O        2.7114770644   -1.3258307833    4.8353945750
O        0.5776520769   -0.6891142218    4.6743416050
H        0.7186138732   -0.7416867798    5.6309313234
H        3.6406252989   -2.1237621969    2.5789886527
H        3.7419410928   -2.1639323439    0.1060330583
15   

H        1.9153640601   -1.1385416848   -1.2355604873
C        1.8803414084   -1.1010624909   -0.1502143862
C        2.8824904361   -1.7163504335    0.6063617977
C        2.8371716160   -1.6662333475    2.0052864486
C        1.8045831785   -0.9994947031    2.6597614547
C        0.7894776244   -0.3928852154    1.8941242966
C        0.8314073961   -0.4399928592    0.4956123564
H        0.0476222894    0.0360751966   -0.0866953327
H       -0.0337932986    0.1199082194    2.3852617924
C        1.7840533419   -0.9976994261    4.1397371598
O        2.7616547916   -1.0494982360    4.8426783265
O        0.5419985770   -0.8781398008    4.6641637093
H        0.6825483625   -0.8802391433    5.6221930152
H        3.6205537199   -2.1476979653    2.5866193782
H        3.6978776559   -2.2341902732    0.1092896999
15   

H        1.8897882361   -1.1733112912   -1.2310666860
C        1.8653332966   -1.1182841462   -0.1461791315
C        2.8555593829   -1.7517523278    0.6116652645
C        2.8236111673   -1.6785019759    2.0100256110
C        1.8194261163   -0.9679417384    2.6602269800
C        0.8133162412   -0.3486610417    1.8959990838
C        0.8408645018   -0.4178536365    0.4980399664
H        0.0649310919    0.0702598468   -0.0847933760
H        0.0095154262    0.1890713670    2.3926635093
C        1.7934632355   -0.9448832003    4.1430370010
O        2.7502839752   -0.7666230362    4.8516483970
O        0.5468173995   -1.0710112460    4.6534111077
H        0.6708248460   -1.0221739931    5.6123898867
H        3.5954068123   -2.1730649799    2.5954336219
H        3.6506066646   -2.3015118427    0.1159352907
15   

H        1.8737384404   -1.2017563165   -1.2273500676
C        1.8548433817   -1.1316267311   -0.1432233001
C        2.8264982544   -1.7872614973    0.6201855989
C        2.8015836751   -1.6941567534    2.0176222523
C        1.8244835839   -0.9416422295    2.6591073548
C        0.8359082721   -0.3018934881    1.8917941934
C        0.8555563723   -0.3900064240    0.4947761369
H        0.0933591603    0.1148180739   -0.0919266295
H        0.0524914752    0.2650288102    2.3883487867
C        1.7910699962   -0.8900048866    4.1451899715
O        2.6770102737   -0.4859195492    4.8509845332
O        0.5974142993   -1.2735543809    4.6513670828
H        0.6959589185   -1.1758833110    5.6094562793
H        3.5577841072   -2.2057501753    2.6082042092
H        3.6011891608   -2.3695057758    0.1293563799
15   

H        1.8759931823   -1.2160240879   -1.2250214330
C        1.8528316964   -1.1344747954   -0.1417755512
C        2.7940651894   -1.8190167992    0.6345525772
C        2.7635605273   -1.7112254378    2.0308891714
C        1.8088804705   -0.9196584023    2.6566764989
C        0.8545991753   -0.2450490057    1.8781750315
C        0.8795031867   -0.3474887545    0.4821830929
H        0.1425622058    0.1822962129   -0.1146949174
H        0.0943199072    0.3599492583    2.3654009302
C        1.7699864762   -0.8345619914    4.1451889787
O        2.5399579867   -0.2183024690    4.8314923067
O        0.7111675287   -1.4888448553    4.6709636138
H        0.7857917090   -1.3483255811    5.6257700641
H        3.4961626980   -2.2446375613    2.6313883001
H        3.5494037517   -2.4346843667    0.1544802386
15   

H        1.9106463862   -1.2132798253   -1.2245240913
C        1.8684753503   -1.1259018584   -0.1423056303
C        2.7633788741   -1.8466282549    0.6560121915
C        2.7082077333   -1.7317931572    2.0510529156
C        1.7676188039   -0.9061614372    2.6526979286
C        0.8706338923   -0.1813078346    1.8528038331
C        0.9201930196   -0.2911095134    0.4579934471
H        0.2238366628    0.2723218450   -0.1565536829
H        0.1363159635    0.4686377802    2.3215826994
C        1.7235761227   -0.7864501195    4.1403386036
O        2.3327034541    0.0170083868    4.7929140153
O        0.9060196377   -1.6989718362    4.7090253162
H        0.9623961644   -1.5211176558    5.6587941687
H        3.4062957012   -2.2911159024    2.6686159206
H        3.5024428027   -2.4949347948    0.1939343950
15   

H        1.9514618232   -1.2012021742   -1.2237355192
C        1.8846862017   -1.1143252239   -0.1427154992
C        2.7255932037   -1.8757525992    0.6763716212
C        2.6387882206   -1.7617532588    2.0698602660
C        1.7112776663   -0.9050374246    2.6491887030
C        0.8813247498   -0.1260211257    1.8284328674
C        0.9626039675   -0.2353279687    0.4350646513
H        0.3135546397    0.3652767805   -0.1958568603
H        0.1751458893    0.5660284411    2.2801698915
C        1.6627576143   -0.7599503163    4.1322825295
O        2.0749834754    0.1840236460    4.7509227253
O        1.1553145329   -1.8515669045    4.7458418306
H        1.1932876921   -1.6419972700    5.6900963134
H        3.2972782604   -2.3501739674    2.7037193317
H        3.4482927089   -2.5539658448    0.2316801114
15   

H        1.9884326722   -1.1981722831   -1.2223636355
C        1.8991832870   -1.1130903171   -0.1428246139
C        2.6940529807   -1.9055306701    0.6924233797
C        2.5786730363   -1.7936296870    2.0840381168
C        1.6632396550   -0.9118325715    2.6466059170
C        0.8864727334   -0.0964223664    1.8086642775
C        0.9963933007   -0.2033946476    0.4171691066
H        0.3858298843    0.4242340392   -0.2257663885
H        0.1995307398    0.6232955971    2.2471974583
C        1.5962129775   -0.7529458054    4.1231748595
O        1.7812220763    0.2768979128    4.7161909590
O        1.3883499816   -1.9219453725    4.7700384753
H        1.3883599795   -1.6850308639    5.7086951901
H        3.2045958911   -2.4055551915    2.7287742071
H        3.4041912706   -2.6057748717    0.2618733122
15   

H        2.0149212460   -1.1944450264   -1.2224271476
C        1.9110576167   -1.1123897030   -0.1439611420
C        2.6681553488   -1.9321837531    0.6994087038
C        2.5343863698   -1.8244260447    2.0897928548
C        1.6372779206   -0.9181442789    2.6452156359
C        0.8985684494   -0.0769154930    1.7970060221
C        1.0272049628   -0.1795220863    0.4069582998
H        0.4454532684    0.4694411658   -0.2415043258
H        0.2252664144    0.6605116362    2.2278621890
C        1.5411089085   -0.7595789055    4.1160822823
O        1.4896697931    0.2955813614    4.6937461185
O        1.5887203344   -1.9344694689    4.7856600882
H        1.5333016839   -1.6844648139    5.7193980946
H        3.1353325262   -2.4599886645    2.7355671697
H        3.3639638867   -2.6510318265    0.2761765356
15   

H        2.0401899889   -1.1866240587   -1.2236677528
C        1.9256876738   -1.1083729728   -0.1459963603
C        2.6489146544   -1.9537308631    0.7011561729
C        2.5017305012   -1.8517560583    2.0907516065
C        1.6270662862   -0.9213713044    2.6441669162
C        0.9177629782   -0.0597453622    1.7893951104
C        1.0602871873   -0.1566561984    0.4005041531
H        0.5019660993    0.5104017499   -0.2502089264
H        0.2537796069    0.6897797113    2.2143290575
C        1.4956755607   -0.7734985858    4.1107632085
O        1.2113619973    0.2520745689    4.6764041840
O        1.7686385193   -1.9065735005    4.7996562677
H        1.6501558359   -1.6594206797    5.7283707588
H        3.0806738910   -2.5125344155    2.7312363257
H        3.3291000430   -2.6893842448    0.2814014348
15   

H        2.0648543587   -1.1740147847   -1.2244986587
C        1.9406965474   -1.1009784929   -0.1475290446
C        2.6308886160   -1.9717996962    0.7007446648
C        2.4713793375   -1.8776009104    2.0896492677
C        1.6211153547   -0.9241296484    2.6435138879
C        0.9377947530   -0.0436270026    1.7850007261
C        1.0931443018   -0.1330638614    0.3971583657
H        0.5565606419    0.5511372116   -0.2540569918
H        0.2815442470    0.7154853282    2.2051759159
C        1.4546566499   -0.7934309211    4.1070616868
O        0.9511186087    0.1524007142    4.6606327138
O        1.9392712645   -1.8416860318    4.8143198212
H        1.7607421074   -1.6121339099    5.7380081124
H        3.0265239970   -2.5652977526    2.7226372233
H        3.2946140488   -2.7230497634    0.2822451387
15   

H        2.0869133917   -1.1573567822   -1.2238971920
C        1.9531978420   -1.0915837343   -0.1476030350
C        2.6109762849   -1.9883131062    0.6991181646
C        2.4389648236   -1.9040534453    2.0872114912
C        1.6135344168   -0.9298471498    2.6431869150
C        0.9544077541   -0.0303193500    1.7846256716
C        1.1225171823   -0.1098426498    0.3977283283
H        0.6071071186    0.5915444185   -0.2523109455
H        0.3061436778    0.7364525374    2.2033545155
C        1.4158270656   -0.8205743991    4.1043664813
O        0.7150869652    0.0001981621    4.6434598662
O        2.0995468403   -1.7382239432    4.8286323116
H        1.8698878848   -1.5386220710    5.7479960448
H        2.9660070493   -2.6178585326    2.7151962440
H        3.2580458887   -2.7535749740    0.2799109610
