15   

H        2.1271735049   -1.0610760435   -1.2209000674
C        1.9701880121   -1.0475306002   -0.1458256107
C        3.0517400084   -1.2090819733    0.7250415162
C        2.8496035073   -1.1921327329    2.1114852719
C        1.5750217493   -1.0076583079    2.6408529889
C        0.4892273856   -0.8565667832    1.7591057534
C        0.6850900441   -0.8725847837    0.3736021902
H       -0.1620525523   -0.7512160031   -0.2955417460
H       -0.5139387204   -0.7261740383    2.1592543451
C        1.3363139185   -1.0078945632    4.1002347776
O        0.2532049108   -1.1124393342    4.6203504509
O        2.4619677513   -0.8943827359    4.8444945112
H        2.1477967374   -0.9106842172    5.7603534847
H        3.7100954708   -1.3264421656    2.7621009864
H        4.0522035569   -1.3500578786    0.3259820561
15   

H        2.1246472896   -1.0335677589   -1.2187905067
C        1.9683865396   -1.0309926596   -0.1435297989
C        3.0460703729   -1.2339596968    0.7240858408
C        2.8439185366   -1.2315988433    2.1105081007
C        1.5758451323   -1.0141948099    2.6412102956
C        0.4920431711   -0.8312814290    1.7648196953
C        0.6874089188   -0.8324312825    0.3789791998
H       -0.1568539592   -0.6835924527   -0.2882414843
H       -0.5072725732   -0.6894836820    2.1703958349
C        1.3412519635   -1.0533571554    4.1018528964
O        0.3073808204   -1.3862309155    4.6242305881
O        2.4261715456   -0.7149018869    4.8376101121
H        2.1290438911   -0.7916084798    5.7560133364
H        3.6941522742   -1.4007106924    2.7666543290
H        4.0421658746   -1.3970850123    0.3225687342
15   

H        2.1177431574   -1.0081096576   -1.2164901180
C        1.9639219031   -1.0165900701   -0.1409080598
C        3.0381700604   -1.2616044458    0.7207711877
C        2.8382667866   -1.2736982318    2.1073376471
C        1.5785392440   -1.0245961847    2.6418248852
C        0.4961126334   -0.8062936715    1.7737735639
C        0.6889139034   -0.7926177803    0.3874298960
H       -0.1526154307   -0.6144555651   -0.2760297617
H       -0.4981077394   -0.6504706313    2.1861040861
C        1.3535862452   -1.0994281784    4.1052591957
O        0.4186322885   -1.6454844608    4.6319319426
O        2.3541343098   -0.5472865054    4.8298364511
H        2.0881478257   -0.6791060103    5.7514193591
H        3.6787827012   -1.4750823203    2.7669420208
H        4.0284889547   -1.4467075106    0.3145410944
15   

H        2.1067587331   -0.9837343162   -1.2155328032
C        1.9581489054   -1.0062314330   -0.1394204058
C        3.0296469417   -1.2973335907    0.7117965649
C        2.8360211088   -1.3272371152    2.0988945858
C        1.5870224546   -1.0499659896    2.6422061447
C        0.5058384177   -0.7862552666    1.7866920494
C        0.6923813756   -0.7543644323    0.3996199375
H       -0.1466353861   -0.5407647893   -0.2565032004
H       -0.4808957104   -0.6098539377    2.2079199812
C        1.3771912808   -1.1498826846    4.1105338262
O        0.5893811345   -1.8830960933    4.6473983084
O        2.2370585674   -0.3838121227    4.8190275715
H        2.0116183291   -0.5557741341    5.7446682732
H        3.6699106960   -1.5622609651    2.7556355096
H        4.0120815449   -1.5040915413    0.2969651622
15   

H        2.0896328164   -0.9507974668   -1.2157595011
C        1.9514566741   -0.9933204660   -0.1388611688
C        3.0217368477   -1.3390518570    0.6934669639
C        2.8415329041   -1.3943200049    2.0815640886
C        1.6068408550   -1.0943136274    2.6431597313
C        0.5275817512   -0.7671177883    1.8080124978
C        0.7008671497   -0.7096807055    0.4199554438
H       -0.1361631266   -0.4497557211   -0.2218173890
H       -0.4463829462   -0.5603793207    2.2442916967
C        1.4183718898   -1.2028539988    4.1181781231
O        0.8236936331   -2.0837055336    4.6786978889
O        2.0538776113   -0.2230841055    4.7977099254
H        1.8716524300   -0.4128144434    5.7292539566
H        3.6732219966   -1.6688498836    2.7254210910
H        3.9926307796   -1.5674593573    0.2631028094
15   

H        2.0780868576   -0.9098248609   -1.2148586125
C        1.9525835128   -0.9734707048   -0.1374505116
C        3.0178275700   -1.3854872119    0.6707002819
C        2.8537545594   -1.4680159714    2.0594546257
C        1.6377601395   -1.1415041076    2.6452017903
C        0.5679591379   -0.7298469316    1.8353317971
C        0.7247766809   -0.6452633010    0.4467129160
H       -0.1065118858   -0.3263710730   -0.1756232601
H       -0.3858865567   -0.4777537594    2.2914383290
C        1.4730089987   -1.2405544486    4.1258747246
O        1.1012532053   -2.2147593928    4.7218263265
O        1.7928661789   -0.0917310027    4.7602209422
H        1.6470276647   -0.2803550892    5.6983165531
H        3.6824125428   -1.7907054489    2.6845548206
H        3.9726394066   -1.6427917609    0.2210765773
15   

H        2.0619300737   -0.8790492552   -1.2142883994
C        1.9514689320   -0.9557136419   -0.1360818820
C        3.0114372617   -1.4250708932    0.6471003844
C        2.8664447572   -1.5247666222    2.0368281587
C        1.6710777304   -1.1693990617    2.6487218174
C        0.6126024301   -0.6836218761    1.8642054744
C        0.7500734783   -0.5820556785    0.4747114419
H       -0.0749028797   -0.2118185493   -0.1272486521
H       -0.3175966948   -0.3865708373    2.3416221709
C        1.5383119488   -1.2544280516    4.1318157707
O        1.4097146879   -2.2666544531    4.7662480239
O        1.5122984664   -0.0369475147    4.7172104066
H        1.4075129837   -0.2213766778    5.6616550599
H        3.6920747299   -1.8895829716    2.6426976786
H        3.9478265526   -1.7126184389    0.1774794181
15   

H        2.0487282903   -0.8846209954   -1.2172488949
C        1.9501733124   -0.9588595291   -0.1377204864
C        3.0022850154   -1.4686811453    0.6303329547
C        2.8726607065   -1.5653425127    2.0217252364
C        1.6979208442   -1.1710126480    2.6518016138
C        0.6503152213   -0.6382454263    1.8810806278
C        0.7728985478   -0.5398082607    0.4900044639
H       -0.0447275639   -0.1354385212   -0.0998982045
H       -0.2602933637   -0.3018335960    2.3702923932
C        1.5964290045   -1.2427548451    4.1339544843
O        1.7085418184   -2.2410864406    4.7950790157
O        1.2701398202   -0.0543677874    4.6902014440
H        1.2142168776   -0.2364177055    5.6393674449
H        3.6927049414   -1.9612305957    2.6159929437
H        3.9210358629   -1.7898441634    0.1478198277
15   

H        2.0333480805   -0.9131402471   -1.2227800562
C        1.9445722372   -0.9746813683   -0.1416054284
C        2.9880040989   -1.5117233721    0.6193108818
C        2.8713850995   -1.5919213787    2.0127836059
C        1.7174240984   -1.1528007744    2.6543384806
C        0.6776824474   -0.5944719831    1.8881686288
C        0.7885129359   -0.5127329879    0.4950169646
H       -0.0224197065   -0.0880497170   -0.0898372937
H       -0.2191298851   -0.2253044992    2.3794631678
C        1.6441545613   -1.2154775829    4.1344176728
O        1.9849076384   -2.1537229375    4.8074671940
O        1.0718727216   -0.1194498526    4.6837193096
H        1.0708198173   -0.2971092140    5.6354752224
H        3.6854929687   -2.0098006624    2.6006347300
H        3.8902879062   -1.8671374691    0.1297716497
15   

H        2.0177214413   -0.9530388916   -1.2296521344
C        1.9381291056   -0.9963335121   -0.1468788118
C        2.9725888430   -1.5530641865    0.6115626612
C        2.8683765349   -1.6096800419    2.0070876944
C        1.7361895746   -1.1234446828    2.6558132027
C        0.7023970535   -0.5507019148    1.8890972174
C        0.8022460498   -0.4928423904    0.4939286446
H       -0.0027080968   -0.0551394388   -0.0896012003
H       -0.1835730372   -0.1515385804    2.3766151463
C        1.6838699788   -1.1792633719    4.1339537702
O        2.2303402313   -2.0124054923    4.8120087637
O        0.9059713582   -0.2185093017    4.6851732967
H        0.9568761024   -0.3830035222    5.6380264806
H        3.6777040863   -2.0441231782    2.5899185171
H        3.8587785000   -1.9425881069    0.1185777751
15   

H        1.9967624575   -0.9985487526   -1.2355066764
C        1.9271956184   -1.0218993829   -0.1514282955
C        2.9532646356   -1.5945606457    0.6058808634
C        2.8626774277   -1.6251127168    2.0031200482
C        1.7537231703   -1.0925346466    2.6572694761
C        0.7245635734   -0.5100195954    1.8889142441
C        0.8119453103   -0.4783032181    0.4920856340
H        0.0122841175   -0.0302802442   -0.0909041353
H       -0.1498626795   -0.0810754372    2.3718313304
C        1.7167859944   -1.1395533839    4.1348693982
O        2.4373567390   -1.8226228019    4.8195694351
O        0.7649306604   -0.3497078313    4.6851518672
H        0.8588025730   -0.4876063917    5.6390229513
H        3.6683853065   -2.0734524278    2.5805920333
H        3.8229864922   -2.0170558543    0.1107123047
15   

H        1.9716837827   -1.0475019405   -1.2388639992
C        1.9132133426   -1.0499015488   -0.1538816218
C        2.9316319676   -1.6363232024    0.6029275438
C        2.8559176633   -1.6392787990    2.0013721641
C        1.7711758701   -1.0614683951    2.6583320889
C        0.7462428263   -0.4710201944    1.8892632624
C        0.8193502393   -0.4666599662    0.4912754674
H        0.0247346807   -0.0093775353   -0.0914311772
H       -0.1134980115   -0.0118416799    2.3706635385
C        1.7452535820   -1.0947464362    4.1362315885
O        2.6010901807   -1.5895811598    4.8276185173
O        0.6531705535   -0.5093032277    4.6816360835
H        0.7779856604   -0.6089904038    5.6367401909
H        3.6566943213   -2.0997823747    2.5761518054
H        3.7841533770   -2.0910886847    0.1064278027
15   

H        1.9428083287   -1.0963256893   -1.2386207478
C        1.8962408791   -1.0779957611   -0.1532147319
C        2.9074102597   -1.6776606618    0.6032335748
C        2.8472829559   -1.6530115717    2.0022310415
C        1.7877701653   -1.0308317694    2.6592356365
C        0.7669194429   -0.4332575333    1.8913605340
C        0.8243409607   -0.4558362717    0.4928024670
H        0.0346412091    0.0102408091   -0.0896115954
H       -0.0752432275    0.0541578868    2.3761403938
C        1.7680236527   -1.0466950957    4.1378279895
O        2.7114770644   -1.3258307833    4.8353945750
O        0.5776517109   -0.6891155193    4.6743416246
H        0.7186248350   -0.7416512659    5.6309316998
H        3.6406252544   -2.1237622562    2.5789886683
H        3.7419411620   -2.1639322359    0.1060330655
15   

H        1.9153642368   -1.1385417154   -1.2355605273
C        1.8803415313   -1.1010625086   -0.1502144291
C        2.8824905666   -1.7163503645    0.6063618048
C        2.8371716160   -1.6662333475    2.0052864486
C        1.8045831785   -0.9994947031    2.6597614547
C        0.7894773930   -0.3928856560    1.8941242186
C        0.8314072921   -0.4399932092    0.4956122741
H        0.0476220128    0.0360744769   -0.0866954835
H       -0.0337940223    0.1199071267    2.3852615088
C        1.7840533419   -0.9976994261    4.1397371598
O        2.7616547916   -1.0494982360    4.8426783265
O        0.5419985569   -0.8781413045    4.6641638792
H        0.6825564346   -0.8801566513    5.6221921948
H        3.6205535647   -2.1476981288    2.5866194637
H        3.6978778248   -2.2341902201    0.1092897867
15   

H        1.8897887302   -1.1733115386   -1.2310668150
C        1.8653336500   -1.1182842663   -0.1461792701
C        2.8555596386   -1.7517523474    0.6116652843
C        2.8236111673   -1.6785019759    2.0100256110
C        1.8194261163   -0.9679417384    2.6602269800
C        0.8133160945   -0.3486614600    1.8959988223
C        0.8408646162   -0.4178540227    0.4980396942
H        0.0649311047    0.0702590657   -0.0847938452
H        0.0095146700    0.1890704182    2.3926627011
C        1.7934632355   -0.9448832003    4.1430370010
O        2.7502839752   -0.7666230362    4.8516483970
O        0.5468177487   -1.0710122568    4.6534114548
H        0.6708113852   -1.0220488118    5.6123856112
H        3.5954064919   -2.1730652331    2.5954338595
H        3.6506069466   -2.3015119960    0.1159355037
15   

H        1.8737393760   -1.2017561443   -1.2273502508
C        1.8548440641   -1.1316265343   -0.1432234897
C        2.8264986538   -1.7872614099    0.6201856162
C        2.8015836751   -1.6941567534    2.0176222523
C        1.8244835839   -0.9416422295    2.6591073548
C        0.8359084157   -0.3018934988    1.8917938352
C        0.8555569019   -0.3900063193    0.4947757639
H        0.0933598071    0.1148180514   -0.0919272640
H        0.0524911772    0.2650286976    2.3883476817
C        1.7910699962   -0.8900048866    4.1451899715
O        2.6770102737   -0.4859195492    4.8509845332
O        0.5974147448   -1.2735548539    4.6513674888
H        0.6959122611   -1.1757461172    5.6094475153
H        3.5577835970   -2.2057505780    2.6082045612
H        3.6011895687   -2.3695059021    0.1293566637
15   

H        1.8759941299   -1.2160238041   -1.2250215937
C        1.8528323952   -1.1344745044   -0.1417757157
C        2.7940655518   -1.8190167107    0.6345525944
C        2.7635605273   -1.7112254378    2.0308891714
C        1.8088804705   -0.9196584023    2.6566764989
C        0.8545995462   -0.2450486840    1.8781747224
C        0.8795039038   -0.3474883382    0.4821827683
H        0.1425632112    0.1822967688   -0.1146954705
H        0.0943202072    0.3599498808    2.3654000263
C        1.7699864762   -0.8345619914    4.1451889787
O        2.5399579867   -0.2183024690    4.8314923067
O        0.7111676205   -1.4888447529    4.6709637884
H        0.7857322211   -1.3482350739    5.6257615982
H        3.4961622234   -2.2446378852    2.6313886412
H        3.5494040954   -2.4346844868    0.1544804980
15   

H        1.9106465858   -1.2132795595   -1.2245241025
C        1.8684754925   -1.1259016772   -0.1423056374
C        2.7633789340   -1.8466281804    0.6560121850
C        2.7082077333   -1.7317931572    2.0510529156
C        1.7676188039   -0.9061614372    2.6526979286
C        0.8706339699   -0.1813077416    1.8528038299
C        0.9201931736   -0.2911093192    0.4579934399
H        0.2238368926    0.2723221364   -0.1565536909
H        0.1363160641    0.4686378916    2.3215827060
C        1.7235761227   -0.7864501195    4.1403386036
O        2.3327034541    0.0170083868    4.7929140153
O        0.9060190361   -1.6989713312    4.7090252558
H        0.9623960690   -1.5211175636    5.6587941543
H        3.4062956641   -2.2911159597    2.6686159098
H        3.5024428542   -2.4949347288    0.1939343833
15   

H        1.9514648228   -1.2011995081   -1.2237352044
C        1.8846901670   -1.1143214740   -0.1427152128
C        2.7255967894   -1.8757491341    0.6763720561
C        2.6387926198   -1.7617487095    2.0698606993
C        1.7112838138   -0.9050314319    2.6491887415
C        0.8813310120   -0.1260150190    1.8284330032
C        0.9626091874   -0.2353228473    0.4350648250
H        0.3135596834    0.3652817895   -0.1958566140
H        0.1751524807    0.5660346790    2.2801703866
C        1.6627618949   -0.7599451383    4.1322855712
O        2.0749866191    0.1840223909    4.7509295601
O        1.1553130901   -1.8515619138    4.7458396142
H        1.1933882509   -1.6420402245    5.6901006176
H        3.2972820638   -2.3501701942    2.7037195556
H        3.4482950610   -2.5539637106    0.2316805745
15   

H        1.9884392773   -1.1981660990   -1.2223627796
C        1.8991900980   -1.1130833385   -0.1428238038
C        2.6940578915   -1.9055250770    0.6924247564
C        2.5786775198   -1.7936236373    2.0840394834
C        1.6632464380   -0.9118247996    2.6466060274
C        0.8864811491   -0.0964130735    1.8086645186
C        0.9964017542   -0.2033857117    0.4171694025
H        0.3858392022    0.4242436116   -0.2257662923
H        0.1995396573    0.6233052453    2.2471979391
C        1.5962172013   -0.7529411735    4.1231769655
O        1.7812278409    0.2768966197    4.7161987547
O        1.3883462120   -1.9219425926    4.7700344424
H        1.3885024573   -1.6850548372    5.7086979116
H        3.2045983392   -2.4055512016    2.7287754616
H        3.4041945337   -2.6057711469    0.2618750085
15   

H        2.0149316359   -1.1944359408   -1.2224247781
C        1.9110674503   -1.1123789045   -0.1439589530
C        2.6681612705   -1.9321750834    0.6994125425
C        2.5343907127   -1.8244161650    2.0897965145
C        1.6372851376   -0.9181310888    2.6452160037
C        0.8985796700   -0.0768995229    1.7970060943
C        1.0272174701   -0.1795074906    0.4069585962
H        0.4454683404    0.4694568350   -0.2415052544
H        0.2252789613    0.6605290967    2.2278617679
C        1.5411137294   -0.7595713251    4.1160844188
O        1.4896788121    0.2955801061    4.6937603843
O        1.5887118907   -1.9344689315    4.7856507715
H        1.5334095122   -1.6844647292    5.7193958053
H        3.1353330481   -2.4599816789    2.7355714525
H        3.3639673026   -2.6510263515    0.2761816776
15   

H        2.0401964208   -1.1866168549   -1.2236655153
C        1.9256939096   -1.1083638468   -0.1459942829
C        2.6489175329   -1.9537233128    0.7011597266
C        2.5017324774   -1.8517468180    2.0907549812
C        1.6270710150   -0.9213588956    2.6441673895
C        0.9177713052   -0.0597307356    1.7893952798
C        1.0602962174   -0.1566433876    0.4005045115
H        0.5019774896    0.5104153915   -0.2502097339
H        0.2537896893    0.6897960606    2.2143288752
C        1.4956788248   -0.7734899047    4.1107672385
O        1.2113706235    0.2520767369    4.6764130352
O        1.7686308271   -1.9065713447    4.7996538726
H        1.6502098608   -1.6594060567    5.7283728943
H        3.0806725585   -2.5125272410    2.7312405119
H        3.3291004781   -2.6893796521    0.2814062121
15   

H        2.0648546545   -1.1740151739   -1.2244974896
C        1.9406967222   -1.1009767243   -0.1475280367
C        2.6308866978   -1.9717979847    0.7007474110
C        2.4713770199   -1.8775965807    2.0896518253
C        1.6211151905   -0.9241232014    2.6435138155
C        0.9377966687   -0.0436201318    1.7849997396
C        1.0931463419   -0.1330593549    0.3971575348
H        0.5565642287    0.5511417448   -0.2540590636
H        0.2815477094    0.7154938369    2.2051743288
C        1.4546560578   -0.7934231178    4.1070663019
O        0.9511230189    0.1524037904    4.6606374231
O        1.9392658311   -1.8416819870    4.8143220761
H        1.7607573158   -1.6121209825    5.7380121082
H        3.0265197914   -2.5652936811    2.7226411251
H        3.2946106323   -2.7230502210    0.2822494022
15   

H        2.1248479086   -1.0886097078   -1.2217068601
C        1.9689205141   -1.0630879241   -0.1466950752
C        3.0551203732   -1.1833803682    0.7247592564
C        2.8547364967   -1.1505359610    2.1112145931
C        1.5758198306   -0.9981885517    2.6410089043
C        0.4868535451   -0.8776673407    1.7576335788
C        0.6811191513   -0.9097913406    0.3722463173
H       -0.1692853416   -0.8155215067   -0.2971323473
H       -0.5184873223   -0.7580303789    2.1557491183
C        1.3386134267   -0.9604966406    4.0999134626
O        0.2563915372   -0.8311031359    4.6169866066
O        2.4596394761   -1.0856136618    4.8494203492
H        2.1436198172   -1.0425286603    5.7637993714
H        3.7224387050   -1.2469562412    2.7588657557
H        4.0585607547   -1.3027877750    0.3261256651
