6    

H       -0.5816678482   -0.0610936445   -0.7607014108
C        0.0265059673    0.3286329349    0.0624006965
H       -0.6528926466    0.6947237885    0.8394657102
O        0.8557889299   -0.6603361629    0.5687624673
H        0.3697193641   -1.4836917489    0.6802303178
Br       1.1586915796    1.7754620708   -0.5756472037
6    

H       -0.5795765215   -0.0852519757   -0.7326709886
C        0.0176068155    0.3321313926    0.0848333523
H       -0.6677489999    0.7406346990    0.8350951312
O        0.8212929711   -0.6421280780    0.6507245824
H        0.4136821729   -1.5103742030    0.5776212171
Br       1.1692769711    1.7554480840   -0.6005019863
6    

H       -0.5876377403   -0.1051884060   -0.7087990211
C        0.0036063445    0.3310030749    0.1031336618
H       -0.6824473300    0.7849634765    0.8261514347
O        0.7673522067   -0.6344618439    0.7259357844
H        0.4809464643   -1.5203883071    0.4858342521
Br       1.1874073467    1.7302178679   -0.6185521633
6    

H       -0.6068712282   -0.1191409875   -0.6883010845
C       -0.0146778335    0.3262494777    0.1179106011
H       -0.6966300034    0.8231609938    0.8161496469
O        0.6999665310   -0.6364018102    0.7873007636
H        0.5667291852   -1.5107505104    0.4089978283
Br       1.2109381148    1.6979772278   -0.6321342789
6    

H       -0.2609768846   -0.1105134777   -0.9362922061
C       -0.0530068624    0.2861478884    0.0629533344
H       -0.9960377844    0.6291778411    0.5017590853
O        0.4857228643   -0.6808204081    0.8633352535
H        0.8221988197   -1.4253920060    0.3532513752
Br       1.1653800933    1.8663572854   -0.0828251648
6    

H       -0.2913459486   -0.1087566730   -0.9387839454
C       -0.0763870936    0.2780318145    0.0628924880
H       -1.0104847949    0.6541758409    0.4936039733
O        0.4121303314   -0.7123610297    0.8589668526
H        0.9225117354   -1.3576735053    0.3551127491
Br       1.2029446674    1.8166542677   -0.0823387185
6    

H       -0.3262750534   -0.0953009223   -0.9454341198
C       -0.0986843349    0.2718448672    0.0608848946
H       -1.0205522659    0.6745504033    0.4939302272
O        0.3506349801   -0.7494746197    0.8376581246
H        1.0134388172   -1.2794658174    0.3760676553
Br       1.2388736074    1.7587335944   -0.0823001346
6    

H       -0.3661343808   -0.0692637899   -0.9556093504
C       -0.1171924212    0.2683668356    0.0560238990
H       -1.0232024591    0.6908763602    0.5034310990
O        0.3026500753   -0.7917456530    0.8006290524
H        1.0910032222   -1.1983819384    0.4167365848
Br       1.2697432603    1.6981847423   -0.0830490317
6    

H       -0.4130521199   -0.0347080155   -0.9672220978
C       -0.1308747877    0.2646684233    0.0477614473
H       -1.0175566520    0.6978404455    0.5228346189
O        0.2692542623   -0.8380401857    0.7477081564
H        1.1518012016   -1.1233807069    0.4773341183
Br       1.2926174216    1.6446482092   -0.0870725631
6    

H       -0.4650046117    0.0082729181   -0.9786229923
C       -0.1379202271    0.2621609083    0.0353002704
H       -1.0016762714    0.6962956178    0.5500623351
O        0.2513387554   -0.8849762839    0.6811041859
H        1.1919756744   -1.0600821392    0.5556259292
Br       1.3067299337    1.6027725353   -0.0941469222
6    

H       -0.5179272923    0.0537075434   -0.9880193669
C       -0.1394461515    0.2585205691    0.0191075890
H       -0.9769264137    0.6832635294    0.5827888842
O        0.2490553683   -0.9282219899    0.6033881813
H        1.2083814522   -1.0099822520    0.6461968028
Br       1.3139865548    1.5763468926   -0.1037999700
6    

H       -0.5664237199    0.0958213400   -0.9940000453
C       -0.1369423178    0.2528388716    0.0011881002
H       -0.9442715301    0.6592772495    0.6196827815
O        0.2623554178   -0.9632881261    0.5193244349
H        1.1995706802   -0.9710181467    0.7414743083
Br       1.3173629474    1.5651724938   -0.1165163957
6    

H       -0.6076740065    0.1315007266   -0.9952205328
C       -0.1313884678    0.2461613851   -0.0156689050
H       -0.9038731418    0.6287015177    0.6599282623
O        0.2892211148   -0.9870997005    0.4346908973
H        1.1649078092   -0.9434950191    0.8348089703
Br       1.3201677998    1.5664709752   -0.1340668405
6    

H       -0.6414637383    0.1577125696   -0.9898273865
C       -0.1230715823    0.2396502919   -0.0285349156
H       -0.8583620701    0.5945663896    0.7014418776
O        0.3282462997   -0.9985999640    0.3556470561
H        1.1071360904   -0.9316587934    0.9213806572
Br       1.3210540778    1.5806252183   -0.1596583155
6    

H       -0.6666320269    0.1729540944   -0.9778947818
C       -0.1113872168    0.2352533965   -0.0358973131
H       -0.8125394053    0.5610605219    0.7397812301
O        0.3774350281   -0.9984456838    0.2882830578
H        1.0308205092   -0.9410299855    0.9976488602
Br       1.3169336847    1.6075746076   -0.1952333407
6    

H       -0.6806968407    0.1777406458   -0.9619200119
C       -0.0951204216    0.2348364147   -0.0381330478
H       -0.7698812836    0.5329683115    0.7713013044
O        0.4350534840   -0.9885876171    0.2371669014
H        0.9413891649   -0.9733144171    1.0604121375
Br       1.3051297936    1.6446851914   -0.2392665551
6    

H       -0.6840839696    0.1712084453   -0.9450150911
C       -0.0759810870    0.2376205688   -0.0365323941
H       -0.7335492276    0.5121742429    0.7950299588
O        0.4992795391   -0.9702849559    0.2051087478
H        0.8434556474   -1.0239495674    1.1061796402
Br       1.2858670524    1.6876943998   -0.2876829556
6    

H       -0.6779015359    0.1566560820   -0.9286864502
C       -0.0541035143    0.2444418254   -0.0327484379
H       -0.7010853329    0.5024322689    0.8122508412
O        0.5686652282   -0.9449394665    0.1926044476
H        0.7418319019   -1.0861820341    1.1311410242
Br       1.2612784149    1.7286160395   -0.3363304650
6    

H       -0.6650126565    0.1340166100   -0.9138049081
C       -0.0317514077    0.2540993244   -0.0283176442
H       -0.6727929670    0.5037961508    0.8236216969
O        0.6415120808   -0.9122691955    0.2000685532
H        0.6407428297   -1.1527422561    1.1327858300
Br       1.2338911660    1.7630614695   -0.3804350573
6    

H       -0.6491580003    0.1055322684   -0.8984324808
C       -0.0106182736    0.2672342124   -0.0234255766
H       -0.6485455448    0.5181018699    0.8304814263
O        0.7145065452   -0.8715399421    0.2273489730
H        0.5460383080   -1.2178260418    1.1088566386
Br       1.2066279175    1.7868277891   -0.4178072392
6    

H       -0.6347532217    0.0713206998   -0.8779875658
C        0.0070418498    0.2813309860   -0.0157236117
H       -0.6306090043    0.5424522206    0.8353253403
O        0.7794815098   -0.8248474683    0.2724918507
H        0.4640668712   -1.2806980957    1.0581460728
Br       1.1837256052    1.7998394336   -0.4510328176
6    

H       -0.6211109332    0.0346954224   -0.8515524125
C        0.0202152108    0.2955345926   -0.0029394281
H       -0.6226524198    0.5739962956    0.8386842691
O        0.8292244082   -0.7759765323    0.3327646787
H        0.4010101576   -1.3405730816    0.9833066522
Br       1.1676640157    1.8038219900   -0.4828482425
6    

H       -0.6064445574   -0.0009127208   -0.8216167952
C        0.0279370110    0.3091127819    0.0155685208
H       -0.6262082886    0.6104526586    0.8405215410
O        0.8598532687   -0.7292997456    0.4051711012
H        0.3628959842   -1.3956224897    0.8906087906
Br       1.1580037709    1.8004475411   -0.5146712852
6    

H       -0.5919137700   -0.0331258570   -0.7908498950
C        0.0300331009    0.3205165246    0.0382941858
H       -0.6379456345    0.6507878096    0.8408439134
O        0.8687437554   -0.6898228926    0.4854328259
H        0.3520975846   -1.4443088187    0.7870949006
Br       1.1552147913    1.7905936092   -0.5461351047
