6    

H       -0.5814891723   -0.0610450990   -0.7608564472
C        0.0265059673    0.3286329349    0.0624006965
H       -0.6528628403    0.6947961513    0.8394577068
O        0.8557889299   -0.6603361629    0.5687624673
H        0.3697193641   -1.4836917489    0.6802303178
Br       1.1586915796    1.7754620708   -0.5756472037
6    

H       -0.5793630274   -0.0852416434   -0.7328321980
C        0.0176068155    0.3321313926    0.0848333523
H       -0.6678490855    0.7405981815    0.8350235688
O        0.8212929711   -0.6421280780    0.6507245824
H        0.4136821729   -1.5103742030    0.5776212171
Br       1.1692769711    1.7554480840   -0.6005019863
6    

H       -0.5874220114   -0.1052218493   -0.7089380551
C        0.0036063445    0.3310030749    0.1031336618
H       -0.6826739915    0.7848159344    0.8260288958
O        0.7673522067   -0.6344618439    0.7259357844
H        0.4809464643   -1.5203883071    0.4858342521
Br       1.1874073467    1.7302178679   -0.6185521633
6    

H       -0.6067177571   -0.1191998088   -0.6883812018
C       -0.0146778335    0.3262494777    0.1179106011
H       -0.6969082964    0.8229624054    0.8160190322
O        0.6999665310   -0.6364018102    0.7873007636
H        0.5667291852   -1.5107505104    0.4089978283
Br       1.2109381148    1.6979772278   -0.6321342789
6    

H       -0.2609443889   -0.1105608726   -0.9362800991
C       -0.0530068624    0.2861478884    0.0629533344
H       -0.9961925064    0.6289894843    0.5015736366
O        0.4857228643   -0.6808204081    0.8633352535
H        0.8221988197   -1.4253920060    0.3532513752
Br       1.1653800933    1.8663572854   -0.0828251648
6    

H       -0.2914820835   -0.1088002734   -0.9387378941
C       -0.0763870936    0.2780318145    0.0628924880
H       -1.0105705365    0.6540568025    0.4935218996
O        0.4121303314   -0.7123610297    0.8589668526
H        0.9225117354   -1.3576735053    0.3551127491
Br       1.2029446674    1.8166542677   -0.0823387185
6    

H       -0.3265491186   -0.0953232035   -0.9453640329
C       -0.0986843349    0.2718448672    0.0608848946
H       -1.0205510574    0.6745129894    0.4939675969
O        0.3506349801   -0.7494746197    0.8376581246
H        1.0134388172   -1.2794658174    0.3760676553
Br       1.2388736074    1.7587335944   -0.0823001346
6    

H       -0.3664787271   -0.0692550127   -0.9555275621
C       -0.1171924212    0.2683668356    0.0560238990
H       -1.0231136137    0.6909114212    0.5035779094
O        0.3026500753   -0.7917456530    0.8006290524
H        1.0910032222   -1.1983819384    0.4167365848
Br       1.2697432603    1.6981847423   -0.0830490317
6    

H       -0.4133693744   -0.0346682481   -0.9671456302
C       -0.1308747877    0.2646684233    0.0477614473
H       -1.0173954947    0.6979269327    0.5230565280
O        0.2692542623   -0.8380401857    0.7477081564
H        1.1518012016   -1.1233807069    0.4773341183
Br       1.2926174216    1.6446482092   -0.0870725631
6    

H       -0.4651878741    0.0083301121   -0.9785781983
C       -0.1379202271    0.2621609083    0.0353002704
H       -1.0014762961    0.6964077597    0.5503032562
O        0.2513387554   -0.8849762839    0.6811041859
H        1.1919756744   -1.0600821392    0.5556259292
Br       1.3067299337    1.6027725353   -0.0941469222
6    

H       -0.5179178461    0.0537585670   -0.9880333001
C       -0.1394461515    0.2585205691    0.0191075890
H       -0.9767347163    0.6833774155    0.5829878401
O        0.2490553683   -0.9282219899    0.6033881813
H        1.2083814522   -1.0099822520    0.6461968028
Br       1.3139865548    1.5763468926   -0.1037999700
6    

H       -0.5662496749    0.0958490708   -0.9940795246
C       -0.1369423178    0.2528388716    0.0011881002
H       -0.9441415117    0.6593705835    0.6197911495
O        0.2623554178   -0.9632881261    0.5193244349
H        1.1995706802   -0.9710181467    0.7414743083
Br       1.3173629474    1.5651724938   -0.1165163957
6    

H       -0.6074052041    0.1314996675   -0.9953510858
C       -0.1313884678    0.2461613851   -0.0156689050
H       -0.9038630584    0.6287515458    0.6599114705
O        0.2892211148   -0.9870997005    0.4346908973
H        1.1649078092   -0.9434950191    0.8348089703
Br       1.3201677998    1.5664709752   -0.1340668405
6    

H       -0.6411709986    0.1576863725   -0.9899829927
C       -0.1230715823    0.2396502919   -0.0285349156
H       -0.8585025199    0.5945595671    0.7013037276
O        0.3282462997   -0.9985999640    0.3556470561
H        1.1071360904   -0.9316587934    0.9213806572
Br       1.3210540778    1.5806252183   -0.1596583155
6    

H       -0.6663856023    0.1729133962   -0.9780373298
C       -0.1113872168    0.2352533965   -0.0358973131
H       -0.8127912186    0.5610024277    0.7395780176
O        0.3774350281   -0.9984456838    0.2882830578
H        1.0308205092   -0.9410299855    0.9976488602
Br       1.3169336847    1.6075746076   -0.1952333407
6    

H       -0.6805529614    0.1776936589   -0.9620083144
C       -0.0951204216    0.2348364147   -0.0381330478
H       -0.7701599812    0.5328787250    0.7711019986
O        0.4350534840   -0.9885876171    0.2371669014
H        0.9413891649   -0.9733144171    1.0604121375
Br       1.3051297936    1.6446851914   -0.2392665551
6    

H       -0.6840731737    0.1711567778   -0.9450185418
C       -0.0759810870    0.2376205688   -0.0365323941
H       -0.7337730044    0.5120767583    0.7948852233
O        0.4992795391   -0.9702849559    0.2051087478
H        0.8434556474   -1.0239495674    1.1061796402
Br       1.2858670524    1.6876943998   -0.2876829556
6    

H       -0.6780284354    0.1565984943   -0.9285924170
C       -0.0541035143    0.2444418254   -0.0327484379
H       -0.7011965133    0.5023513873    0.8121904095
O        0.5686652282   -0.9449394665    0.1926044476
H        0.7418319019   -1.0861820341    1.1311410242
Br       1.2612784149    1.7286160395   -0.3363304650
6    

H       -0.6652528210    0.1339558097   -0.9136248170
C       -0.0317514077    0.2540993244   -0.0283176442
H       -0.6727652345    0.5037559307    0.8236542863
O        0.6415120808   -0.9122691955    0.2000685532
H        0.6407428297   -1.1527422561    1.1327858300
Br       1.2338911660    1.7630614695   -0.3804350573
6    

H       -0.6494460457    0.1054808077   -0.8982126512
C       -0.0106182736    0.2672342124   -0.0234255766
H       -0.6483971856    0.5181205680    0.8305866567
O        0.7145065452   -0.8715399421    0.2273489730
H        0.5460383080   -1.2178260418    1.1088566386
Br       1.2066279175    1.7868277891   -0.4178072392
6    

H       -0.6349883499    0.0713001455   -0.8778074671
C        0.0070418498    0.2813309860   -0.0157236117
H       -0.6304008222    0.5425319842    0.8354567605
O        0.7794815098   -0.8248474683    0.2724918507
H        0.4640668712   -1.2806980957    1.0581460728
Br       1.1837256052    1.7998394336   -0.4510328176
6    

H       -0.6212149556    0.0347189151   -0.8514810041
C        0.0202152108    0.2955345926   -0.0029394281
H       -0.6224464689    0.5741224036    0.8387998391
O        0.8292244082   -0.7759765323    0.3327646787
H        0.4010101576   -1.3405730816    0.9833066522
Br       1.1676640157    1.8038219900   -0.4828482425
6    

H       -0.6064136911   -0.0008556820   -0.8216613330
C        0.0279370110    0.3091127819    0.0155685208
H       -0.6260361713    0.6106006217    0.8406040000
O        0.8598532687   -0.7292997456    0.4051711012
H        0.3628959842   -1.3956224897    0.8906087906
Br       1.1580037709    1.8004475411   -0.5146712852
6    

H       -0.5917905456   -0.0330599802   -0.7909704650
C        0.0300331009    0.3205165246    0.0382941858
H       -0.6378270530    0.6509223933    0.8408872680
O        0.8687437554   -0.6898228926    0.4854328259
H        0.3520975846   -1.4443088187    0.7870949006
Br       1.1552147913    1.7905936092   -0.5461351047
