15   

H        1.8845501689   -1.1969428431   -1.1372784042
C        1.8989896802   -1.1487039668   -0.0516632474
C        2.9606941587   -1.7129155783    0.6605965661
C        2.9827614043   -1.6485462797    2.0588609734
C        1.9377439914   -1.0271728360    2.7676298687
C        0.8788116493   -0.4511547521    2.0341132518
C        0.8609934889   -0.5146553058    0.6358223349
H        0.0426240387   -0.0637818771    0.0809008003
H        0.0688827940    0.0726118818    2.5337519838
C        1.9680883683   -0.9741836753    4.2380957310
O        2.9986688411   -1.1458666493    4.8281181973
O        0.8176975165   -0.7689074310    4.9117198680
H        0.0392111191   -0.8750488027    4.3499162352
H        3.8161069657   -2.0883348694    2.6032830229
H        3.7727971170   -2.2011723786    0.1291527547
15   

H        1.8838577960   -1.2620478374   -1.1393029591
C        1.8976851579   -1.2010760709   -0.0543360887
C        2.9498306242   -1.7725909602    0.6665708554
C        2.9717723598   -1.6906361548    2.0641067466
C        1.9363536224   -1.0425348973    2.7629711103
C        0.8871239850   -0.4605202771    2.0206800768
C        0.8687460273   -0.5425069746    0.6235512930
H        0.0577804826   -0.0857915751    0.0625790923
H        0.0864425024    0.0827230543    2.5151240228
C        1.9669687079   -0.9570535557    4.2318023284
O        2.9799005709   -1.1865343014    4.8318113293
O        0.8201727735   -0.6788308861    4.8963827097
H        0.0378198781   -0.9607343381    4.4072733019
H        3.7988991763   -2.1341971364    2.6148245301
H        3.7553463974   -2.2788900031    0.1420860428
15   

H        1.8962135349   -1.3110821986   -1.1454713808
C        1.9060715398   -1.2407516982   -0.0610535201
C        2.9502956511   -1.8145570992    0.6697486433
C        2.9674283673   -1.7197137867    2.0667230085
C        1.9353380570   -1.0548150301    2.7547447261
C        0.8937840389   -0.4722952311    2.0023864943
C        0.8797245464   -0.5676498837    0.6062416485
H        0.0743152826   -0.1095800693    0.0384478685
H        0.0956980024    0.0808678355    2.4904775447
C        1.9609905227   -0.9456727612    4.2222483695
O        2.9519553600   -1.2277853219    4.8353878664
O        0.8187513595   -0.5924102168    4.8733903761
H        0.0425735843   -1.0278828458    4.5047395272
H        3.7893206513   -2.1638248848    2.6246625685
H        3.7538641070   -2.3318118112    0.1531035426
15   

H        1.9225823778   -1.3320181811   -1.1567541656
C        1.9249406275   -1.2589450092   -0.0725086191
C        2.9612626988   -1.8351691194    0.6677657632
C        2.9685563402   -1.7365642331    2.0647266405
C        1.9348661052   -1.0640504515    2.7429804069
C        0.9008632826   -0.4808168505    1.9810175701
C        0.8962142712   -0.5802840739    0.5852458411
H        0.0958837239   -0.1213307597    0.0110795130
H        0.1002072422    0.0740127752    2.4632557628
C        1.9493342915   -0.9460609383    4.2102323805
O        2.9158055587   -1.2749738308    4.8379288803
O        0.8161862423   -0.5120029357    4.8460307092
H        0.0570692655   -1.0667189309    4.6424410287
H        3.7847166942   -2.1821512470    2.6297094856
H        3.7664440314   -2.3569453699    0.1583192997
15   

H        1.9623592846   -1.3202243470   -1.1735337656
C        1.9534612295   -1.2517156262   -0.0890633965
C        2.9811056140   -1.8322580493    0.6599906424
C        2.9731975235   -1.7400855373    2.0575023829
C        1.9333810900   -1.0684793483    2.7273796007
C        0.9078095877   -0.4822334944    1.9565328429
C        0.9179682752   -0.5755720918    0.5604673395
H        0.1229744523   -0.1147714187   -0.0195224153
H        0.1001780054    0.0668875657    2.4337810326
C        1.9291469593   -0.9584922434    4.1957048625
O        2.8728577852   -1.3252648400    4.8365564315
O        0.8133844471   -0.4410311361    4.8144917730
H        0.0849205742   -1.0676986832    4.8165559905
H        3.7823955470   -2.1896150985    2.6291745439
H        3.7910477112   -2.3527617496    0.1569250956
15   

H        2.0135778682   -1.2842101435   -1.1913346646
C        1.9897551400   -1.2268380425   -0.1064814828
C        3.0069954751   -1.8148008760    0.6509811745
C        2.9788251675   -1.7381263010    2.0492587973
C        1.9295942721   -1.0734407700    2.7115496310
C        0.9143350480   -0.4806531755    1.9320852735
C        0.9443223835   -0.5589256240    0.5354444537
H        0.1558153837   -0.0942174911   -0.0501719831
H        0.0967632670    0.0578889286    2.4044913662
C        1.8997871122   -0.9847514010    4.1816005266
O        2.8238530391   -1.3846174627    4.8327035659
O        0.8135777641   -0.3840208727    4.7813433930
H        0.1343895329   -1.0226726858    5.0130015120
H        3.7793507369   -2.1947320023    2.6273221380
H        3.8240419750   -2.3298578672    0.1539318655
15   

H        2.0656464786   -1.2478160858   -1.2061179017
C        2.0254509558   -1.2028346618   -0.1211972891
C        3.0322737964   -1.7973493738    0.6450307416
C        2.9820828677   -1.7377644797    2.0436072647
C        1.9215829393   -1.0825430190    2.6976598199
C        0.9166565605   -0.4839709058    1.9090680431
C        0.9682888830   -0.5455916319    0.5122918037
H        0.1863762922   -0.0775475391   -0.0794101234
H        0.0879575563    0.0426254457    2.3755856832
C        1.8644648008   -1.0160943889    4.1688027370
O        2.7728100942   -1.4446641856    4.8270544181
O        0.8118864082   -0.3497796604    4.7476219735
H        0.2118289264   -0.9483311713    5.2015783603
H        3.7740356828   -2.2007825249    2.6281719641
H        3.8578334556   -2.3050507626    0.1546200824
15   

H        2.1064431078   -1.2277830774   -1.2160938600
C        2.0513952128   -1.1922740253   -0.1314993728
C        3.0492075383   -1.7906792775    0.6434540608
C        2.9792483099   -1.7440912774    2.0417481365
C        1.9083707128   -1.0967995383    2.6869972775
C        0.9123011168   -0.4951397231    1.8893397709
C        0.9832785864   -0.5443380968    0.4929814990
H        0.2071125002   -0.0747691919   -0.1049984900
H        0.0737532162    0.0216050836    2.3493406517
C        1.8283881370   -1.0446122746    4.1582436765
O        2.7179718929   -1.5063816611    4.8231421996
O        0.8069430448   -0.3321011349    4.7179690519
H        0.3143682362   -0.8555188143    5.3592646619
H        3.7640092315   -2.2109503647    2.6327777047
H        3.8828272264   -2.2918205538    0.1600564333
15   

H        2.1402171282   -1.2149184427   -1.2221844619
C        2.0728492745   -1.1849117259   -0.1381351379
C        3.0675984802   -1.7773531805    0.6453726618
C        2.9815061082   -1.7380210861    2.0430607962
C        1.8972877410   -1.1039808695    2.6790793685
C        0.9039580834   -0.5092356945    1.8727610168
C        0.9912437043   -0.5507649311    0.4771381191
H        0.2166863107   -0.0866340246   -0.1271198213
H        0.0540727129   -0.0051807384    2.3261739995
C        1.7990648920   -1.0595077510    4.1496555281
O        2.6824298442   -1.5240885205    4.8235997111
O        0.7732368745   -0.3583201056    4.6950982431
H        0.4261107457   -0.8002211738    5.4800723659
H        3.7636248656   -2.2006911314    2.6407434856
H        3.9111016172   -2.2685759744    0.1690469990
15   

H        2.1602149949   -1.2026489835   -1.2262248903
C        2.0836573538   -1.1781757360   -0.1426555128
C        3.0758581989   -1.7675309574    0.6464472509
C        2.9776950306   -1.7355525461    2.0435566665
C        1.8839173014   -1.1118383311    2.6732783765
C        0.8928553146   -0.5209156870    1.8614179988
C        0.9922310410   -0.5549490710    0.4664183871
H        0.2190216816   -0.0940478794   -0.1420069390
H        0.0348179154   -0.0268459664    2.3105964205
C        1.7732870249   -1.0739648113    4.1431193128
O        2.6438235577   -1.5544947917    4.8245015410
O        0.7398915337   -0.3917709077    4.6809002893
H        0.5372040601   -0.7272520831    5.5655056809
H        3.7575446650   -2.1962094197    2.6456786925
H        3.9265162226   -2.2509406363    0.1749009024
15   

H        2.1791630804   -1.1887962878   -1.2286758920
C        2.0953858709   -1.1690423454   -0.1455495971
C        3.0881205025   -1.7517008282    0.6479197090
C        2.9804282178   -1.7260406675    2.0444825421
C        1.8763466258   -1.1156710809    2.6690369325
C        0.8844929739   -0.5320619893    1.8529606657
C        0.9936017837   -0.5593263054    0.4585647855
H        0.2194865063   -0.1043282809   -0.1531377367
H        0.0178626721   -0.0499576060    2.2987514629
C        1.7556122556   -1.0841983111    4.1380086188
O        2.6168413565   -1.5725990153    4.8267423208
O        0.6983528723   -0.4453050078    4.6712337923
H        0.6316876847   -0.6531752277    5.6154516743
H        3.7601814145   -2.1820480965    2.6502238210
H        3.9462746647   -2.2254185794    0.1801508021
15   

H        2.1947092814   -1.1718836317   -1.2287385243
C        2.1059431582   -1.1574055227   -0.1459280103
C        3.1015682330   -1.7322140687    0.6496834739
C        2.9872629951   -1.7136296745    2.0458506491
C        1.8733528526   -1.1187092445    2.6677265009
C        0.8783352184   -0.5435165902    1.8495569725
C        0.9943545434   -0.5631266700    0.4556079131
H        0.2175711377   -0.1149024420   -0.1577146543
H        0.0034070116   -0.0748170165    2.2934743233
C        1.7453914501   -1.0948628721    4.1361247707
O        2.6008503096   -1.5892390423    4.8282279659
O        0.6573532767   -0.5109993448    4.6661296362
H        0.6999540803   -0.5653297355    5.6333404788
H        3.7687562795   -2.1642674969    2.6533531965
H        3.9667851813   -2.1948491095    0.1838446599
15   

H        2.2007632748   -1.1496481136   -1.2274292017
C        2.1101982639   -1.1421950749   -0.1446947728
C        3.1110377257   -1.7101654793    0.6492425362
C        2.9942790536   -1.7009355260    2.0452819366
C        1.8724214296   -1.1227802212    2.6688100999
C        0.8718575321   -0.5549562852    1.8522308257
C        0.9906678653   -0.5646395139    0.4583949972
H        0.2094911280   -0.1224387047   -0.1537152796
H       -0.0100704300   -0.1005746587    2.2971382124
C        1.7418442730   -1.1091455964    4.1372136933
O        2.5956126918   -1.6110677238    4.8255151724
O        0.6233657383   -0.5811850372    4.6669061589
H        0.7381070498   -0.4603452269    5.6215966941
H        3.7794770231   -2.1470756925    2.6513375624
H        3.9819462407   -2.1607693527    0.1822100569
15   

H        2.2023025721   -1.1263744035   -1.2237943038
C        2.1115894610   -1.1275541572   -0.1410420913
C        3.1179340338   -1.6912764958    0.6488775116
C        3.0009058427   -1.6934859042    2.0448978804
C        1.8731154157   -1.1314117789    2.6726558166
C        0.8666663880   -0.5683752093    1.8599068027
C        0.9860211530   -0.5662019561    0.4660605164
H        0.2002410302   -0.1280828901   -0.1430907684
H       -0.0208904693   -0.1278025949    2.3073807574
C        1.7424952170   -1.1297652323    4.1413428617
O        2.5948125588   -1.6433128635    4.8216728059
O        0.5999815756   -0.6453155250    4.6728259354
H        0.7516274357   -0.3386777537    5.5778857632
H        3.7901918284   -2.1370411191    2.6475649039
H        3.9931448329   -2.1301899528    0.1787488166
15   

H        2.2019020657   -1.1031433618   -1.2186238360
C        2.1113980086   -1.1150612438   -0.1359102302
C        3.1218509983   -1.6790406584    0.6485063499
C        3.0050262249   -1.6953981305    2.0444201998
C        1.8734443567   -1.1471898399    2.6777021696
C        0.8624158989   -0.5845221210    1.8703599122
C        0.9816775080   -0.5681083088    0.4765830541
H        0.1923436918   -0.1307581573   -0.1285295790
H       -0.0293415971   -0.1563479265    2.3213537116
C        1.7438414781   -1.1595802722    4.1464666813
O        2.5896860048   -1.6921495693    4.8182448066
O        0.5891282398   -0.6919400859    4.6844710685
H        0.7563898927   -0.2017431636    5.4991409894
H        3.7973356624   -2.1395976604    2.6426930815
H        3.9999731892   -2.1075268247    0.1741810045
15   

H        2.1945886456   -1.0680402268   -1.2110054605
C        2.1059942410   -1.0933250195   -0.1283475852
C        3.1233624237   -1.6562884739    0.6477356828
C        3.0089988898   -1.6901711418    2.0434663099
C        1.8730778787   -1.1607549098    2.6849596860
C        0.8544997932   -0.5998878339    1.8860019295
C        0.9715603895   -0.5655731972    0.4923039567
H        0.1765956078   -0.1300736604   -0.1067619541
H       -0.0421178337   -0.1883806395    2.3426498480
C        1.7466703787   -1.1927006338    4.1535260743
O        2.5937320746   -1.7315294789    4.8159687824
O        0.5843146081   -0.7355471359    4.7051185344
H        0.7467312763   -0.0720023406    5.3842247046
H        3.8064455486   -2.1340391910    2.6352289638
H        4.0047906172   -2.0707882594    0.1670987082
15   

H        2.1894951399   -1.0233842953   -1.1989664075
C        2.1008099756   -1.0662768656   -0.1168449170
C        3.1199382702   -1.6384877652    0.6500955464
C        3.0051291772   -1.6960053832    2.0449419556
C        1.8677990513   -1.1800208612    2.6945571954
C        0.8468549292   -0.6104804607    1.9050387398
C        0.9641054784   -0.5531862091    0.5120504083
H        0.1671899397   -0.1123339592   -0.0805191463
H       -0.0530152197   -0.2128658513    2.3674463846
C        1.7415377547   -1.2388741136    4.1617086621
O        2.5707483659   -1.8108536126    4.8153960276
O        0.6010843426   -0.7318112742    4.7354542568
H        0.7746778590    0.0717176422    5.2340679807
H        3.8033451141   -2.1476704485    2.6298700119
H        4.0028042572   -2.0423346230    0.1629944982
15   

H        2.1920717741   -0.9607163056   -1.1810338632
C        2.1016508465   -1.0240401959   -0.1000252432
C        3.1210330104   -1.6081221140    0.6575605221
C        3.0035354934   -1.6933353127    2.0506814081
C        1.8639989676   -1.1923100668    2.7077595415
C        0.8421879956   -0.6113953749    1.9279176878
C        0.9619612738   -0.5269487495    0.5364599756
H        0.1641847881   -0.0790391546   -0.0496911996
H       -0.0619995358   -0.2298267258    2.3953244434
C        1.7335388424   -1.2860344471    4.1719997394
O        2.5470548902   -1.8862473052    4.8167177345
O        0.6300298214   -0.7166576198    4.7707461311
H        0.8013009899    0.1859379278    5.0515046476
H        3.8010782538   -2.1553471585    2.6285722200
H        4.0057511936   -2.0005381379    0.1644174307
15   

H        2.1947131056   -0.8991316357   -1.1601231726
C        2.1028533327   -0.9809750283   -0.0804417224
C        3.1217469307   -1.5773764466    0.6681072659
C        3.0019829875   -1.6879211450    2.0591621913
C        1.8614106010   -1.1989158926    2.7232232614
C        0.8393884178   -0.6062376689    1.9525812269
C        0.9613002659   -0.4970451597    0.5629666618
H        0.1632094256   -0.0418573001   -0.0172019158
H       -0.0685720987   -0.2389433472    2.4240375584
C        1.7266404034   -1.3255009760    4.1840133022
O        2.5229630600   -1.9593881536    4.8163580767
O        0.6772146513   -0.6878127990    4.8066287795
H        0.8182109921    0.2612737249    4.8588856084
H        3.7983487617   -2.1607067443    2.6300935944
H        4.0074438281   -1.9605891202    0.1694146833
15   

H        2.1830109200   -0.8600669864   -1.1417206215
C        2.0933064278   -0.9538389263   -0.0627889301
C        3.1134248480   -1.5594265142    0.6765524680
C        2.9963523664   -1.6862099054    2.0663351560
C        1.8580492590   -1.2032881234    2.7385488543
C        0.8338261848   -0.6023332212    1.9771475292
C        0.9530080314   -0.4773822299    0.5885234081
H        0.1534683986   -0.0169977017    0.0144009815
H       -0.0753775276   -0.2442252887    2.4531166914
C        1.7265273604   -1.3498802070    4.1973750642
O        2.5033872645   -2.0224477502    4.8141403649
O        0.7378355067   -0.6540096401    4.8415042669
H        0.8071218129    0.2927487769    4.6857321843
H        3.7932880032   -2.1666369254    2.6302097693
H        3.9978339619   -1.9376171125    0.1716806811
15   

H        2.1509380597   -0.8494503073   -1.1307655260
C        2.0675451424   -0.9481170158   -0.0517306958
C        3.0900779742   -1.5612324661    0.6778201793
C        2.9814288457   -1.6943417108    2.0675336341
C        1.8501612389   -1.2091811271    2.7498293725
C        0.8222669054   -0.6019069719    1.9982587634
C        0.9329657568   -0.4711639586    0.6093157619
H        0.1313003647   -0.0063099647    0.0417374135
H       -0.0843084833   -0.2453584741    2.4800863036
C        1.7320711998   -1.3605416134    4.2090352845
O        2.4827789562   -2.0780719343    4.8083070248
O        0.8064597221   -0.6146808271    4.8726823357
H        0.7703691066    0.2911116053    4.5467541279
H        3.7803544558   -2.1800745499    2.6241480590
H        3.9699927381   -1.9401254173    0.1655829296
15   

H        2.1027270673   -0.8653924817   -1.1266682215
C        2.0293484733   -0.9624629212   -0.0467354559
C        3.0544373933   -1.5830116679    0.6726101722
C        2.9592340734   -1.7133573619    2.0633836676
C        1.8400987630   -1.2169748739    2.7574147894
C        0.8082656116   -0.6034333398    2.0161274422
C        0.9053863805   -0.4761031775    0.6256660039
H        0.1017180492   -0.0061635965    0.0651145934
H       -0.0914796683   -0.2397228051    2.5048523757
C        1.7446223341   -1.3600076061    4.2189671693
O        2.4629092781   -2.1234719283    4.8019672369
O        0.8796570551   -0.5710231832    4.8998162704
H        0.7137027303    0.2641688277    4.4462888539
H        3.7606815530   -2.2034564547    2.6126195104
H        3.9263406307   -1.9689973011    0.1519581405
15   

H        2.0480120020   -0.9007164933   -1.1278406789
C        1.9857050928   -0.9915615951   -0.0466557816
C        3.0099524519   -1.6236543781    0.6634437363
C        2.9296607532   -1.7447855126    2.0557994092
C        1.8277308268   -1.2265521957    2.7612809579
C        0.7955545469   -0.6020465632    2.0293069298
C        0.8773796554   -0.4849682620    0.6367680330
H        0.0745371579   -0.0059571336    0.0827413281
H       -0.0928005677   -0.2204101155    2.5244169365
C        1.7595309640   -1.3521489483    4.2260582469
O        2.4386431647   -2.1607922615    4.7957947108
O        0.9540667574   -0.5217591351    4.9195930511
H        0.6435555903    0.2202057428    4.3848023805
H        3.7314060597   -2.2418412513    2.5983989319
H        3.8703062824   -2.0244678731    0.1347866997
15   

H        1.9918049871   -0.9392892909   -1.1330642549
C        1.9428151998   -1.0198649507   -0.0503758532
C        2.9616926287   -1.6703985482    0.6501091594
C        2.8991586137   -1.7770375368    2.0443391167
C        1.8214333767   -1.2257551579    2.7626956044
C        0.7944372370   -0.5812672350    2.0399376280
C        0.8580652656   -0.4798230720    0.6450004223
H        0.0601787026    0.0153307196    0.0980742248
H       -0.0754922759   -0.1674560779    2.5406457374
C        1.7842871622   -1.3319355372    4.2312349782
O        2.4463606446   -2.1623385220    4.7902618717
O        1.0071228433   -0.4880721497    4.9361936299
H        0.5258446077    0.1308077647    4.3713537733
H        3.6984655169   -2.2865926416    2.5789413379
H        3.8049811941   -2.0954928888    0.1129581332
