15   
torsion grid (-165,)
H        2.0835062559   -1.0603897583   -1.1749004600
C        1.9396384275   -1.0464470671   -0.1044559118
C        3.0260545504   -1.2105830211    0.7405229076
C        2.8496035073   -1.1921327329    2.1114852719
C        1.5750217493   -1.0076583079    2.6408529889
C        0.4834297917   -0.8531831586    1.7887920955
C        0.6688004209   -0.8677805561    0.4199948725
H       -0.1760419455   -0.7428544031   -0.2406943096
H       -0.4968357054   -0.7213569975    2.2211739338
C        1.3363139185   -1.0078945632    4.1002347776
O        0.2532049108   -1.1124393342    4.6203504509
O        2.4622353717   -0.8933172245    4.8243628305
H        2.2443808175   -0.9094514049    5.7692368649
H        3.6888251806   -1.3199993935    2.7771854152
H        4.0134155694   -1.3550473151    0.3276173097
15   
torsion grid (-150,)
H        2.0844606806   -1.0418797695   -1.1741361613
C        1.9401399249   -1.0358874547   -0.1037387803
C        3.0207509496   -1.2410676303    0.7392633278
C        2.8439185366   -1.2315988433    2.1105081007
C        1.5758451323   -1.0141948099    2.6412102956
C        0.4880890920   -0.8283545592    1.7915019731
C        0.6743873448   -0.8292992470    0.4224257772
H       -0.1668020574   -0.6750126720   -0.2367501538
H       -0.4905424538   -0.6806825652    2.2223955422
C        1.3412519635   -1.0533571554    4.1018528964
O        0.3073808204   -1.3862309155    4.6242305881
O        2.4243472353   -0.7091818707    4.8175312357
H        2.2258226742   -0.7715856581    5.7649500205
H        3.6790055896   -1.3904361969    2.7751127573
H        4.0034973881   -1.4117658903    0.3254016184
15   
torsion grid (-135,)
H        2.0823552376   -1.0229133319   -1.1746716133
C        1.9402025996   -1.0261256023   -0.1040074895
C        3.0143102516   -1.2726097087    0.7355561936
C        2.8382667866   -1.2736982318    2.1073376471
C        1.5785392440   -1.0245961847    2.6418248852
C        0.4952284064   -0.8038842410    1.7964006484
C        0.6818000631   -0.7909836625    0.4268724113
H       -0.1557065629   -0.6057942206   -0.2289774603
H       -0.4811517524   -0.6374576766    2.2256320069
C        1.3535862452   -1.0994281784    4.1052591957
O        0.4186322885   -1.6454844608    4.6319319426
O        2.3463727546   -0.5345648372    4.8099804570
H        2.1774769976   -0.6323188338    5.7604950673
H        3.6700960411   -1.4628073112    2.7684845407
H        3.9915442198   -1.4678687564    0.3196406046
15   
torsion grid (-120,)
H        2.0783198681   -0.9958533675   -1.1750600509
C        1.9391104222   -1.0137553547   -0.1042540011
C        3.0078469347   -1.3071886459    0.7263599966
C        2.8360211088   -1.3272371152    2.0988945858
C        1.5870224546   -1.0499659896    2.6422061447
C        0.5083697011   -0.7824343278    1.8064546941
C        0.6908153073   -0.7503324885    0.4360096226
H       -0.1436006344   -0.5281769356   -0.2123057672
H       -0.4629472051   -0.5934124115    2.2379879387
C        1.3771912808   -1.1498826846    4.1105338262
O        0.5893811345   -1.8830960933    4.6473983084
O        2.2195217639   -0.3656044848    4.7986064992
H        2.0809912162   -0.4776312455    5.7528828436
H        3.6656832578   -1.5521500273    2.7519084739
H        3.9778262101   -1.5238140661    0.3041359229
15   
torsion grid (-105,)
H        2.0658269819   -0.9568347521   -1.1761241780
C        1.9361500873   -0.9972572658   -0.1047904102
C        3.0021657237   -1.3440856611    0.7081476080
C        2.8415329041   -1.3943200049    2.0815640886
C        1.6068408550   -1.0943136274    2.6431597313
C        0.5323369765   -0.7644901448    1.8266595766
C        0.7030216697   -0.7071269566    0.4548251011
H       -0.1300606549   -0.4410691079   -0.1785104600
H       -0.4289821123   -0.5495585747    2.2687002536
C        1.4183718898   -1.2028539988    4.1181781231
O        0.8236936331   -2.0837055336    4.6786978889
O        2.0331693368   -0.2106565488    4.7756757438
H        1.9150917714   -0.3134383085    5.7341334764
H        3.6703862908   -1.6629608355    2.7192363831
H        3.9620074678   -1.5778639173    0.2722061110
15   
torsion grid (-90,)
H        2.0490852496   -0.9242964682   -1.1756258241
C        1.9337621777   -0.9854329244   -0.1036420688
C        2.9978064637   -1.3884834010    0.6853608738
C        2.8537545594   -1.4680159714    2.0594546257
C        1.6377601395   -1.1415041076    2.6452017903
C        0.5689928346   -0.7394859574    1.8547711947
C        0.7211219419   -0.6622405914    0.4814659449
H       -0.1100008673   -0.3489500342   -0.1325403113
H       -0.3757652426   -0.4909357327    2.3147651151
C        1.4730089987   -1.2405544486    4.1258747246
O        1.1012532053   -2.2147593928    4.7218263265
O        1.7945991226   -0.0933971473    4.7374874489
H        1.6820307182   -0.1761739837    5.6987189359
H        3.6804188715   -1.7841290057    2.6780293673
H        3.9437246479   -1.6421760717    0.2306108939
15   
torsion grid (-75,)
H        2.0238983156   -0.9108740131   -1.1755538682
C        1.9257099472   -0.9819696936   -0.1024591954
C        2.9900921379   -1.4298021215    0.6619329112
C        2.8664447572   -1.5247666222    2.0368281587
C        1.6710777304   -1.1693990617    2.6487218174
C        0.6078327877   -0.7069000477    1.8838450002
C        0.7360005702   -0.6231376356    0.5086167410
H       -0.0938231494   -0.2718209933   -0.0863159982
H       -0.3162422880   -0.4231689751    2.3647835441
C        1.5383119488   -1.2544280516    4.1318157707
O        1.4097146879   -2.2666544531    4.7662480239
O        1.5428778813   -0.0401315654    4.6977742952
H        1.4390954184   -0.1138730987    5.6605939005
H        3.6906592699   -1.8784857758    2.6379284971
H        3.9199028056   -1.7051231296    0.1869994392
15   
torsion grid (-60,)
H        2.0038087742   -0.9189364014   -1.1765313307
C        1.9193095660   -0.9874291043   -0.1020433083
C        2.9796842493   -1.4722864942    0.6458253140
C        2.8726607065   -1.5653425127    2.0217252364
C        1.6979208442   -1.1710126480    2.6518016138
C        0.6421650003   -0.6637857922    1.9034291547
C        0.7518792186   -0.5867919195    0.5266458048
H       -0.0731465461   -0.2057760152   -0.0566064352
H       -0.2615526855   -0.3444694419    2.4000143523
C        1.5964290045   -1.2427548451    4.1339544843
O        1.7085418184   -2.2410864406    4.7950790157
O        1.3076016764   -0.0490746139    4.6722053316
H        1.2234053446   -0.1262188442    5.6363078227
H        3.6901484433   -1.9487672990    2.6135650123
H        3.8926974062   -1.7768028658    0.1563869691
15   
torsion grid (-45,)
H        1.9886730963   -0.9393087524   -1.1792224753
C        1.9140605704   -0.9972201845   -0.1033179115
C        2.9666302145   -1.5128707118    0.6358039106
C        2.8713850995   -1.5919213787    2.0127836059
C        1.7174240984   -1.1528007744    2.6543384806
C        0.6701004758   -0.6165797566    1.9127970308
C        0.7670496802   -0.5532883229    0.5347315405
H       -0.0511134795   -0.1500035642   -0.0432867444
H       -0.2164562810   -0.2654406763    2.4181731061
C        1.6441545613   -1.2154775829    4.1344176728
O        1.9849076384   -2.1537229375    4.8074671940
O        1.1023117071   -0.1085321794    4.6656908676
H        1.0504512819   -0.1937997917    5.6309683286
H        3.6790644306   -1.9982216535    2.6026156841
H        3.8629097269   -1.8513469711    0.1377987473
15   
torsion grid (-30,)
H        1.9715061133   -0.9690572493   -1.1828970395
C        1.9069288260   -1.0112477822   -0.1055436499
C        2.9508226793   -1.5517053731    0.6288897709
C        2.8683765349   -1.6096800419    2.0070876944
C        1.7361895746   -1.1234446828    2.6558132027
C        0.6951031002   -0.5683513881    1.9176158786
C        0.7809176030   -0.5232817559    0.5384491996
H       -0.0303194327   -0.1027256279   -0.0370684493
H       -0.1753841031   -0.1867487693    2.4283395000
C        1.6838699788   -1.1792633719    4.1339537702
O        2.2303402313   -2.0124054923    4.8120087637
O        0.9259865842   -0.2077791768    4.6682265939
H        0.9107262766   -0.2966145918    5.6340829070
H        3.6672304224   -2.0318946762    2.5977501006
H        3.8292584319   -1.9263352585    0.1250507947
15   
torsion grid (-15,)
H        1.9549870875   -0.9993942377   -1.1863607602
C        1.9000821178   -1.0255153206   -0.1079099361
C        2.9334414194   -1.5898199884    0.6239494127
C        2.8626774277   -1.6251127168    2.0031200482
C        1.7537231703   -1.0925346466    2.6572694761
C        0.7201680665   -0.5205815157    1.9200813423
C        0.7961362048   -0.4938020701    0.5400487772
H       -0.0068061231   -0.0556691464   -0.0340227120
H       -0.1343948344   -0.1081153891    2.4332932695
C        1.7167859944   -1.1395533839    4.1348693982
O        2.4373567390   -1.8226228019    4.8195694351
O        0.7761950467   -0.3432201837    4.6699790496
H        0.7948331619   -0.4217806819    5.6364323015
H        3.6529694293   -2.0618201822    2.5947192369
H        3.7933979129   -2.0009929729    0.1167206987
15   
torsion grid (0,)
H        1.9376833463   -1.0318958267   -1.1880875583
C        1.8918974458   -1.0407084523   -0.1089305894
C        2.9138740792   -1.6274923701    0.6213907921
C        2.8559176633   -1.6392787990    2.0013721641
C        1.7711758701   -1.0614683951    2.6583320889
C        0.7462315590   -0.4726785669    1.9218721450
C        0.8114315826   -0.4649087472    0.5411296913
H        0.0177593820   -0.0089532749   -0.0320012542
H       -0.0904335612   -0.0270031423    2.4366087769
C        1.7452535820   -1.0947464362    4.1362315885
O        2.6010901807   -1.5895811598    4.8276185173
O        0.6572963194   -0.5111931861    4.6669246980
H        0.6996087282   -0.5658904250    5.6341948657
H        3.6385180746   -2.0896424383    2.5929466546
H        3.7542485688   -2.0750940181    0.1121564569
15   
torsion grid (15,)
H        1.9199120615   -1.0629611211   -1.1883857142
C        1.8836602355   -1.0552764270   -0.1088581270
C        2.8923403061   -1.6643077677    0.6215764839
C        2.8472829559   -1.6530115717    2.0022310415
C        1.7877701653   -1.0308317694    2.6592356365
C        0.7726643365   -0.4254442863    1.9231112846
C        0.8277166438   -0.4365677952    0.5418713337
H        0.0443865419    0.0371091899   -0.0310676798
H       -0.0457862557    0.0524683940    2.4384078310
C        1.7680236527   -1.0466950957    4.1378279895
O        2.7114770644   -1.3258307833    4.8353945750
O        0.5785860335   -0.7013493930    4.6585721888
H        0.6289179276   -0.7224690751    5.6268550446
H        3.6221863387   -2.1176083336    2.5929415965
H        3.7124148132   -2.1477594027    0.1120455528
15   
torsion grid (30,)
H        1.9029876608   -1.0932338962   -1.1868523114
C        1.8751889815   -1.0687702214   -0.1073758634
C        2.8692618451   -1.6995188834    0.6241817233
C        2.8371716160   -1.6662333475    2.0052864486
C        1.8045831785   -0.9994947031    2.6597614547
C        0.7997378127   -0.3787216596    1.9236557977
C        0.8445599906   -0.4079417790    0.5421228335
H        0.0717015203    0.0821685176   -0.0311792587
H       -0.0010525861    0.1291932142    2.4384026465
C        1.7840533419   -0.9976994261    4.1397371598
O        2.7616547916   -1.0494982360    4.8426783265
O        0.5440633473   -0.8999431928    4.6461802939
H        0.5850104251   -0.8869110864    5.6152811989
H        3.6044170491   -2.1457324906    2.5941241490
H        3.6682138465   -2.2181980477    0.1157544387
15   
torsion grid (45,)
H        1.8869010865   -1.1237511634   -1.1850974298
C        1.8670764704   -1.0823702270   -0.1060302478
C        2.8446819714   -1.7338792257    0.6287641544
C        2.8236111673   -1.6785019759    2.0100256110
C        1.8194261163   -0.9679417384    2.6602269800
C        0.8272962130   -0.3316932087    1.9218710273
C        0.8626263964   -0.3800737507    0.5402486000
H        0.1007397155    0.1252017013   -0.0345210054
H        0.0438273781    0.2062732989    2.4331977904
C        1.7934632355   -0.9448832003    4.1430370010
O        2.7502839752   -0.7666230362    4.8516483970
O        0.5543149984   -1.1016718358    4.6340583308
H        0.5727335186   -1.0595720385    5.6033926448
H        3.5821348781   -2.1738876610    2.5970200215
H        3.6224357000   -2.2871611764    0.1239171622
15   
torsion grid (60,)
H        1.8776824434   -1.1475159601   -1.1838117773
C        1.8615657936   -1.0920787089   -0.1053764381
C        2.8170699984   -1.7669943115    0.6364383873
C        2.8015836751   -1.6941567534    2.0176222523
C        1.8244835839   -0.9416422295    2.6591073548
C        0.8525478003   -0.2825069079    1.9155736970
C        0.8830713716   -0.3490309258    0.5342191350
H        0.1364886152    0.1741481904   -0.0445049265
H        0.0870602660    0.2873253646    2.4201383175
C        1.7910699962   -0.8900048866    4.1451899715
O        2.6770102737   -0.4859195492    4.8509845332
O        0.6134130444   -1.3071601336    4.6321325861
H        0.6077426436   -1.2419902214    5.6007679993
H        3.5459494359   -2.2101014917    2.6052409316
H        3.5748138796   -2.3529067135    0.1380370140
15   
torsion grid (75,)
H        1.8815593642   -1.1688357416   -1.1837700208
C        1.8603767389   -1.1003735236   -0.1062303027
C        2.7862759938   -1.7991804919    0.6501677812
C        2.7635605273   -1.7112254378    2.0308891714
C        1.8088804705   -0.9196584023    2.6566764989
C        0.8712029380   -0.2295918113    1.8990482171
C        0.9058087048   -0.3153922581    0.5184192187
H        0.1820860966    0.2282127545   -0.0703887800
H        0.1253562006    0.3771443762    2.3902750059
C        1.7699864762   -0.8345619914    4.1451889787
O        2.5399579867   -0.2183024690    4.8314923067
O        0.7306987203   -1.5120522913    4.6508899727
H        0.7117355669   -1.4320738001    5.6186058185
H        3.4861550993   -2.2491117774    2.6261233791
H        3.5279119365   -2.4155323729    0.1643717920
15   
torsion grid (90,)
H        1.9063454071   -1.1829837130   -1.1838648772
C        1.8676320072   -1.1052805576   -0.1074589919
C        2.7548331977   -1.8288266783    0.6713354279
C        2.7082077333   -1.7317931572    2.0510529156
C        1.7676188039   -0.9061614372    2.6526979286
C        0.8788087609   -0.1780040168    1.8726556690
C        0.9316558501   -0.2806871282    0.4936195704
H        0.2398979916    0.2851764982   -0.1123417179
H        0.1522300270    0.4659548264    2.3452440483
C        1.7235761227   -0.7864501195    4.1403386036
O        2.3327034541    0.0170083868    4.7929140153
O        0.9089641982   -1.6984403824    4.6863615287
H        0.8929931176   -1.6061518723    5.6531692705
H        3.3998495395   -2.2926095442    2.6618332504
H        3.4862366097   -2.4712863428    0.2042023963
15   
torsion grid (105,)
H        1.9427979841   -1.1797995646   -1.1832259296
C        1.8789326151   -1.1009518126   -0.1080931784
C        2.7190138888   -1.8572440218    0.6918025152
C        2.6387926198   -1.7617487095    2.0698606993
C        1.7112838138   -0.9050314319    2.6491887415
C        0.8811440776   -0.1323435770    1.8467947837
C        0.9606597636   -0.2402058416    0.4696975942
H        0.3083047394    0.3533864627   -0.1532052593
H        0.1746315680    0.5443763661    2.3035443559
C        1.6627618949   -0.7599451383    4.1322855712
O        2.0749866191    0.1840223909    4.7509295601
O        1.1343516867   -1.8395925563    4.7237906355
H        1.1324280874   -1.7318678517    5.6889534013
H        3.2909579093   -2.3506036673    2.6973334879
H        3.4405055532   -2.5229862851    0.2421020589
15   
torsion grid (120,)
H        1.9824193927   -1.1696539295   -1.1805955730
C        1.8944440884   -1.0947032760   -0.1068320793
C        2.6903642442   -1.8825648673    0.7080334330
C        2.5786775198   -1.7936236373    2.0840394834
C        1.6632464380   -0.9118247996    2.6466060274
C        0.8840686437   -0.1015507593    1.8281421314
C        0.9911764451   -0.2059835766    0.4533482300
H        0.3756255041    0.4128233211   -0.1823332385
H        0.1944067567    0.5979174205    2.2759340100
C        1.5962172013   -0.7529411735    4.1231769655
O        1.7812278409    0.2768966197    4.7161987547
O        1.3641473748   -1.9158084778    4.7492287261
H        1.3592392498   -1.7856721444    5.7112184527
H        3.1938964954   -2.4071744469    2.7246745358
H        3.4023956258   -2.5666715112    0.2709191781
15   
torsion grid (135,)
H        2.0074351358   -1.1586893636   -1.1789961841
C        1.9054767705   -1.0890580369   -0.1060119173
C        2.6643346173   -1.9068732629    0.7153539912
C        2.5343907127   -1.8244161650    2.0897965145
C        1.6372851376   -0.9181310888    2.6452160037
C        0.8954605715   -0.0785393931    1.8195041142
C        1.0209762348   -0.1762902789    0.4464515007
H        0.4352274399    0.4651627948   -0.1948657132
H        0.2222599336    0.6373423640    2.2662364071
C        1.5411137294   -0.7595713251    4.1160844188
O        1.4896788121    0.2955801061    4.6937603843
O        1.5743507415   -1.9337075862    4.7654136092
H        1.5412767625   -1.7853130502    5.7237687564
H        3.1202811407   -2.4592432819    2.7367465120
H        3.3620050807   -2.6087876703    0.2833006401
15   
torsion grid (150,)
H        2.0245781464   -1.1504032357   -1.1775929404
C        1.9136885325   -1.0838241113   -0.1052657023
C        2.6410077164   -1.9292794165    0.7173421892
C        2.5017324774   -1.8517468180    2.0907549812
C        1.6270710150   -0.9213588956    2.6441673895
C        0.9124684104   -0.0592478081    1.8159996641
C        1.0495303846   -0.1494227343    0.4440812850
H        0.4880295750    0.5117470346   -0.1989492824
H        0.2538755989    0.6684332606    2.2653678795
C        1.4956788248   -0.7734899047    4.1107672385
O        1.2113706235    0.2520767369    4.6764130352
O        1.7633618022   -1.9070925550    4.7793760239
H        1.6846793296   -1.7523049353    5.7337126565
H        3.0636781479   -2.5056017136    2.7395923154
H        3.3208022361   -2.6490201420    0.2859923044
15   
torsion grid (165,)
H        2.0397365093   -1.1397118795   -1.1774271777
C        1.9223667156   -1.0777473902   -0.1054529731
C        2.6180340504   -1.9500419799    0.7169695597
C        2.4713770199   -1.8775965807    2.0896518253
C        1.6211151905   -0.9241232014    2.6435138155
C        0.9310438665   -0.0419678193    1.8146308520
C        1.0791444915   -0.1241088958    0.4436821725
H        0.5405548676    0.5558427453   -0.1993282693
H        0.2849343666    0.6954520784    2.2663022027
C        1.4546560578   -0.7934231178    4.1070663019
O        0.9511230189    0.1524037904    4.6606374231
O        1.9390498539   -1.8414930443    4.7941621063
H        1.8110098213   -1.6948563000    5.7442206916
H        3.0093182411   -2.5514769166    2.7379604673
H        3.2780887498   -2.6876867264    0.2851700397
15   
torsion grid (180,)
H        2.0813959657   -1.0828644295   -1.1752199906
C        1.9381851089   -1.0589315876   -0.1048624268
C        3.0301223383   -1.1802648486    0.7403946238
C        2.8547364967   -1.1505359610    2.1112145931
C        1.5758198306   -0.9981885517    2.6410089043
C        0.4806585648   -0.8766382651    1.7878020395
C        0.6635681140   -0.9072417004    0.4190477097
H       -0.1851355324   -0.8130471850   -0.2418265432
H       -0.5011661937   -0.7595934463    2.2208459078
C        1.3386134267   -0.9604966406    4.0999134626
O        0.2563915372   -0.8311031359    4.6169866066
O        2.4603107782   -1.0857075560    4.8292760346
H        2.2385747265   -1.0533716238    5.7727691225
H        3.6983984157   -1.2443111496    2.7767931684
H        4.0210792436   -1.2982391570    0.3276158253
