15   

H        2.1271734390   -1.0610762505   -1.2209000602
C        1.9701879719   -1.0475307385   -0.1458256018
C        3.0517399890   -1.2090820286    0.7250415161
C        2.8496035073   -1.1921327329    2.1114852719
C        1.5750217493   -1.0076583079    2.6408529889
C        0.4892273716   -0.8565668479    1.7591057675
C        0.6850900074   -0.8725849278    0.3736022082
H       -0.1620526138   -0.7512162210   -0.2955417087
H       -0.5139387289   -0.7261741008    2.1592543712
C        1.3363139185   -1.0078945632    4.1002347776
O        0.2532049108   -1.1124393342    4.6203504509
O        2.4619677469   -0.8943827159    4.8444945145
H        2.1477967330   -0.9106842504    5.7603534864
H        3.7100954787   -1.3264421191    2.7621009855
H        4.0522035370   -1.3500579173    0.3259820512
15   

H        2.1246473033   -1.0335675278   -1.2187905022
C        1.9683865489   -1.0309924976   -0.1435297947
C        3.0460703732   -1.2339596223    0.7240858385
C        2.8439185366   -1.2315988433    2.1105081007
C        1.5758451323   -1.0141948099    2.6412102956
C        0.4920431830   -0.8312813252    1.7648197016
C        0.6874089342   -0.8324311075    0.3789792076
H       -0.1568539362   -0.6835922081   -0.2882414722
H       -0.5072725523   -0.6894835341    2.1703958447
C        1.3412519635   -1.0533571554    4.1018528964
O        0.3073808204   -1.3862309155    4.6242305881
O        2.4261715376   -0.7149018536    4.8376101125
H        2.1290439240   -0.7916085544    5.7560133427
H        3.6941522673   -1.4007107524    2.7666543225
H        4.0421658691   -1.3970849328    0.3225687198
15   

H        2.1177430445   -1.0081096148   -1.2164901112
C        1.9639218303   -1.0165900443   -0.1409080461
C        3.0381700169   -1.2616044136    0.7207711759
C        2.8382667866   -1.2736982318    2.1073376471
C        1.5785392440   -1.0245961847    2.6418248852
C        0.4961126103   -0.8062936673    1.7737735994
C        0.6889138393   -0.7926177733    0.3874299336
H       -0.1526155187   -0.6144555592   -0.2760296955
H       -0.4981077479   -0.6504706253    2.1861041604
C        1.3535862452   -1.0994281784    4.1052591957
O        0.4186322885   -1.6454844608    4.6319319426
O        2.3541342773   -0.5472864478    4.8298364494
H        2.0881478683   -0.6791060992    5.7514193566
H        3.6787827157   -1.4750823139    2.7669420040
H        4.0284889016   -1.4467074507    0.3145410420
15   

H        2.1067587783   -0.9837340584   -1.2155327962
C        1.9581489414   -1.0062312665   -0.1394204008
C        3.0296469642   -1.2973334844    0.7117965672
C        2.8360211088   -1.3272371152    2.0988945858
C        1.5870224546   -1.0499659896    2.6422061447
C        0.5058384245   -0.7862552342    1.7866920507
C        0.6923813984   -0.7543643239    0.3996199392
H       -0.1466353526   -0.5407646537   -0.2565032024
H       -0.4808957057   -0.6098539383    2.2079199850
C        1.3771912808   -1.1498826846    4.1105338262
O        0.5893811345   -1.8830960933    4.6473983084
O        2.2370585198   -0.3838120565    4.8190275589
H        2.0116184200   -0.5557741989    5.7446682705
H        3.6699106812   -1.5622609996    2.7556355157
H        4.0120815763   -1.5040914044    0.2969651637
15   

H        2.0896327433   -0.9507976217   -1.2157595107
C        1.9514566256   -0.9933205724   -0.1388611738
C        3.0217368212   -1.3390519093    0.6934669572
C        2.8415329041   -1.3943200049    2.0815640886
C        1.6068408550   -1.0943136274    2.6431597313
C        0.5275817304   -0.7671178444    1.8080125027
C        0.7008671037   -0.7096808127    0.4199554458
H       -0.1361631925   -0.4497558729   -0.2218173792
H       -0.4463829684   -0.5603793917    2.2442917074
C        1.4183718898   -1.2028539988    4.1181781231
O        0.8236936331   -2.0837055336    4.6786978889
O        2.0538775065   -0.2230840345    4.7977099175
H        1.8716523821   -0.4128144157    5.7292539502
H        3.6732220095   -1.6688498500    2.7254210885
H        3.9926307457   -1.5674594240    0.2631027937
15   

H        2.0780869093   -0.9098247951   -1.2148586119
C        1.9525835513   -0.9734706563   -0.1374505125
C        3.0178275928   -1.3854871848    0.6707002872
C        2.8537545594   -1.4680159714    2.0594546257
C        1.6377601395   -1.1415041076    2.6452017903
C        0.5679591597   -0.7298468824    1.8353317929
C        0.7247767214   -0.6452632398    0.4467129129
H       -0.1065118305   -0.3263709801   -0.1756232656
H       -0.3858865241   -0.4777536626    2.2914383190
C        1.4730089987   -1.2405544486    4.1258747246
O        1.1012532053   -2.2147593928    4.7218263265
O        1.7928661283   -0.0917309865    4.7602209379
H        1.6470275692   -0.2803550598    5.6983165440
H        3.6824125341   -1.7907054671    2.6845548226
H        3.9726394414   -1.6427917163    0.2210765958
15   

H        2.0619300582   -0.8790492400   -1.2142883910
C        1.9514689209   -0.9557136355   -0.1360818752
C        3.0114372501   -1.4250708992    0.6471003848
C        2.8664447572   -1.5247666222    2.0368281587
C        1.6710777304   -1.1693990617    2.6487218174
C        0.6126024295   -0.6836218725    1.8642054823
C        0.7500734737   -0.5820556648    0.4747114521
H       -0.0749028838   -0.2118185268   -0.1272486367
H       -0.3175966928   -0.3865708436    2.3416221853
C        1.5383119488   -1.2544280516    4.1318157707
O        1.4097146879   -2.2666544531    4.7662480239
O        1.5122985034   -0.0369475162    4.7172104120
H        1.4075128484   -0.2213766745    5.6616550468
H        3.6920747312   -1.8895829759    2.6426976741
H        3.9478265354   -1.7126184527    0.1774794147
15   

H        2.0487282787   -0.8846210483   -1.2172488990
C        1.9501733040   -0.9588595680   -0.1377204891
C        3.0022850142   -1.4686811672    0.6303329531
C        2.8726607065   -1.5653425127    2.0217252364
C        1.6979208442   -1.1710126480    2.6518016138
C        0.6503152114   -0.6382454548    1.8810806270
C        0.7728985346   -0.5398083074    0.4900044625
H       -0.0447275919   -0.1354385905   -0.0998981995
H       -0.2602933786   -0.3018336335    2.3702923900
C        1.5964290045   -1.2427548451    4.1339544843
O        1.7085418184   -2.2410864406    4.7950790157
O        1.2701399081   -0.0543677731    4.6902014582
H        1.2142168216   -0.2364177410    5.6393674419
H        3.6927049487   -1.9612305843    2.6159929392
H        3.9210358640   -1.7898441872    0.1478198289
15   

H        2.0333481672   -0.9131401054   -1.2227800468
C        1.9445722947   -0.9746812675   -0.1416054229
C        2.9880041235   -1.5117233311    0.6193108866
C        2.8713850995   -1.5919213787    2.0127836059
C        1.7174240984   -1.1528007744    2.6543384806
C        0.6776824762   -0.5944719192    1.8881686280
C        0.7885129971   -0.5127328702    0.4950169655
H       -0.0224196090   -0.0880495390   -0.0898373010
H       -0.2191298533   -0.2253044180    2.3794631615
C        1.6441545613   -1.2154775829    4.1344176728
O        1.9849076384   -2.1537229375    4.8074671940
O        1.0718728091   -0.1194498131    4.6837193242
H        1.0708197741   -0.2971092404    5.6354752251
H        3.6854929574   -2.0098006887    2.6006347272
H        3.8902879301   -1.8671374379    0.1297716574
15   

H        2.0177215289   -0.9530387300   -1.2296521254
C        1.9381291662   -0.9963334027   -0.1468788067
C        2.9725888712   -1.5530641369    0.6115626659
C        2.8683765349   -1.6096800419    2.0070876944
C        1.7361895746   -1.1234446828    2.6558132027
C        0.7023970827   -0.5507018605    1.8890972176
C        0.8022461087   -0.4928422784    0.4939286469
H       -0.0027080122   -0.0551392771   -0.0896011977
H       -0.1835730030   -0.1515385214    2.3766151532
C        1.6838699788   -1.1792633719    4.1339537702
O        2.2303402313   -2.0124054923    4.8120087637
O        0.9059714390   -0.2185092401    4.6851733000
H        0.9568761406   -0.3830034948    5.6380264808
H        3.6777040708   -2.0441232117    2.5899185136
H        3.8587785320   -1.9425880557    0.1185777841
15   

H        1.9967623848   -0.9985488839   -1.2355066829
C        1.9271955718   -1.0218994744   -0.1514282995
C        2.9532646171   -1.5945606869    0.6058808606
C        2.8626774277   -1.6251127168    2.0031200482
C        1.7537231703   -1.0925346466    2.6572694761
C        0.7245635522   -0.5100196319    1.8889142419
C        0.8119452626   -0.4783033080    0.4920856290
H        0.0122840448   -0.0302803798   -0.0909041431
H       -0.1498627020   -0.0810754701    2.3718313245
C        1.7167859944   -1.1395533839    4.1348693982
O        2.4373567390   -1.8226228019    4.8195694351
O        0.7649306722   -0.3497078174    4.6851518680
H        0.8588025478   -0.4876064208    5.6390229508
H        3.6683853211   -2.0734524010    2.5805920337
H        3.8229864792   -2.0170558918    0.1107123026
15   

H        1.9716838066   -1.0475018148   -1.2388639852
C        1.9132133604   -1.0499014594   -0.1538816091
C        2.9316319705   -1.6363231558    0.6029275439
C        2.8559176633   -1.6392787990    2.0013721641
C        1.7711758701   -1.0614683951    2.6583320889
C        0.7462428357   -0.4710201616    1.8892632758
C        0.8193502588   -0.4666598856    0.4912754863
H        0.0247347130   -0.0093774164   -0.0914311467
H       -0.1134979954   -0.0118416383    2.3706635562
C        1.7452535820   -1.0947464362    4.1362315885
O        2.6010901807   -1.5895811598    4.8276185173
O        0.6531705584   -0.5093032203    4.6816360854
H        0.7779856720   -0.6089903894    5.6367401926
H        3.6566943121   -2.0997823981    2.5761517995
H        3.7841533718   -2.0910886358    0.1064277864
15   

H        1.9428083080   -1.0963256903   -1.2386207448
C        1.8962408690   -1.0779957530   -0.1532147274
C        2.9074102428   -1.6776606760    0.6032335742
C        2.8472829559   -1.6530115717    2.0022310415
C        1.7877701653   -1.0308317694    2.6592356365
C        0.7669194521   -0.4332575045    1.8913605429
C        0.8243409701   -0.4558362310    0.4928024755
H        0.0346412335    0.0102408834   -0.0896115821
H       -0.0752432043    0.0541579330    2.3761404139
C        1.7680236527   -1.0466950957    4.1378279895
O        2.7114770644   -1.3258307833    4.8353945750
O        0.5776517061   -0.6891155343    4.6743416241
H        0.7186248462   -0.7416512246    5.6309316996
H        3.6406252492   -2.1237622657    2.5789886676
H        3.7419411231   -2.1639322878    0.1060330646
15   

H        1.9153640810   -1.1385420095   -1.2355605238
C        1.8803414276   -1.1010627068   -0.1502144283
C        2.8824905204   -1.7163504638    0.6063618076
C        2.8371716160   -1.6662333475    2.0052864486
C        1.8045831785   -0.9994947031    2.6597614547
C        0.7894773573   -0.3928857190    1.8941242126
C        0.8314071991   -0.4399933816    0.4956122696
H        0.0476218769    0.0360742350   -0.0866954907
H       -0.0337940504    0.1199070802    2.3852614967
C        1.7840533419   -0.9976994261    4.1397371598
O        2.7616547916   -1.0494982360    4.8426783265
O        0.5419985609   -0.8781412661    4.6641638814
H        0.6825564612   -0.8801563798    5.6221921941
H        3.6205535962   -2.1476980650    2.5866194743
H        3.6978777762   -2.2341903329    0.1092897928
15   

H        1.8897886047   -1.1733116248   -1.2310667987
C        1.8653335696   -1.1182843265   -0.1461792541
C        2.8555596083   -1.7517523583    0.6116652827
C        2.8236111673   -1.6785019759    2.0100256110
C        1.8194261163   -0.9679417384    2.6602269800
C        0.8133160721   -0.3486614757    1.8959988461
C        0.8408645378   -0.4178540845    0.4980397221
H        0.0649309892    0.0702589646   -0.0847937981
H        0.0095146576    0.1890703997    2.3926627503
C        1.7934632355   -0.9448832003    4.1430370010
O        2.7502839752   -0.7666230362    4.8516483970
O        0.5468177568   -1.0710123302    4.6534114575
H        0.6708113760   -1.0220487535    5.6123856109
H        3.5954065077   -2.1730652277    2.5954338431
H        3.6506069222   -2.3015119945    0.1159354949
15   

H        1.8737394657   -1.2017561239   -1.2273502616
C        1.8548441262   -1.1316265088   -0.1432235006
C        2.8264986858   -1.7872614053    0.6201856194
C        2.8015836751   -1.6941567534    2.0176222523
C        1.8244835839   -0.9416422295    2.6591073548
C        0.8359084495   -0.3018934634    1.8917938171
C        0.8555569717   -0.3900062708    0.4947757410
H        0.0933599116    0.1148181306   -0.0919273069
H        0.0524912111    0.2650287493    2.3883476467
C        1.7910699962   -0.8900048866    4.1451899715
O        2.6770102737   -0.4859195492    4.8509845332
O        0.5974147943   -1.2735549910    4.6513675031
H        0.6959122693   -1.1757461356    5.6094475228
H        3.5577835736   -2.2057506020    2.6082045704
H        3.6011895981   -2.3695059157    0.1293566831
15   

H        1.8759941582   -1.2160237277   -1.2250215846
C        1.8528324175   -1.1344744516   -0.1417757067
C        2.7940655630   -1.8190166813    0.6345525942
C        2.7635605273   -1.7112254378    2.0308891714
C        1.8088804705   -0.9196584023    2.6566764989
C        0.8545995660   -0.2450486505    1.8781747326
C        0.8795039304   -0.3474882832    0.4821827800
H        0.1425632524    0.1822968481   -0.1146954543
H        0.0943202401    0.3599499234    2.3654000436
C        1.7699864762   -0.8345619914    4.1451889787
O        2.5399579867   -0.2183024690    4.8314923067
O        0.7111676740   -1.4888448353    4.6709637923
H        0.7857322346   -1.3482351034    5.6257615973
H        3.4961622146   -2.2446379039    2.6313886354
H        3.5494041050   -2.4346844546    0.1544804888
15   

H        1.9106464027   -1.2132796847   -1.2245240862
C        1.8684753665   -1.1259017596   -0.1423056223
C        2.7633788635   -1.8466282176    0.6560121825
C        2.7082077333   -1.7317931572    2.0510529156
C        1.7676188039   -0.9061614372    2.6526979286
C        0.8706339178   -0.1813077828    1.8528038550
C        0.9201930590   -0.2911093996    0.4579934682
H        0.2238367366    0.2723220205   -0.1565536463
H        0.1363160155    0.4686378395    2.3215827532
C        1.7235761227   -0.7864501195    4.1403386036
O        2.3327034541    0.0170083868    4.7929140153
O        0.9060190917   -1.6989713773    4.7090252638
H        0.9623961747   -1.5211176523    5.6587941682
H        3.4062956943   -2.2911159316    2.6686159012
H        3.5024427618   -2.4949347710    0.1939343552
15   

H        1.9514649723   -1.2011993626   -1.2237352109
C        1.8846902808   -1.1143213662   -0.1427152182
C        2.7255968556   -1.8757490741    0.6763720547
C        2.6387926198   -1.7617487095    2.0698606993
C        1.7112838138   -0.9050314319    2.6491887415
C        0.8813310781   -0.1260149542    1.8284329971
C        0.9626093028   -0.2353227348    0.4350648170
H        0.3135598426    0.3652819466   -0.1958566248
H        0.1751525689    0.5660347688    2.2801703775
C        1.6627618949   -0.7599451383    4.1322855712
O        2.0749866191    0.1840223909    4.7509295601
O        1.1553130617   -1.8515618963    4.7458396207
H        1.1933883398   -1.6420402449    5.6901006282
H        3.2972820256   -2.3501702419    2.7037195510
H        3.4482951496   -2.5539636323    0.2316805777
15   

H        1.9884389846   -1.1981663395   -1.2223627741
C        1.8991898964   -1.1130835050   -0.1428237969
C        2.6940577764   -1.9055251731    0.6924247525
C        2.5786775198   -1.7936236373    2.0840394834
C        1.6632464380   -0.9118247996    2.6466060274
C        0.8864810886   -0.0964131226    1.8086645299
C        0.9964015944   -0.2033858410    0.4171694159
H        0.3858389842    0.4242434352   -0.2257662707
H        0.1995396000    0.6233051964    2.2471979608
C        1.5962172013   -0.7529411735    4.1231769655
O        1.7812278409    0.2768966197    4.7161987547
O        1.3883461210   -1.9219425781    4.7700344366
H        1.3885025418   -1.6850548484    5.7086979133
H        3.2045983868   -2.4055511610    2.7287754536
H        3.4041943886   -2.6057712633    0.2618749898
15   

H        2.0149314873   -1.1944360409   -1.2224247819
C        1.9110673502   -1.1123789723   -0.1439589544
C        2.6681612202   -1.9321751159    0.6994125356
C        2.5343907127   -1.8244161650    2.0897965145
C        1.6372851376   -0.9181310888    2.6452160037
C        0.8985796241   -0.0768995576    1.7970060993
C        1.0272173718   -0.1795075598    0.4069586000
H        0.4454681966    0.4694567326   -0.2415052444
H        0.2252789135    0.6605290577    2.2278617776
C        1.5411137294   -0.7595713251    4.1160844188
O        1.4896788121    0.2955801061    4.6937603843
O        1.5887118284   -1.9344689327    4.7856507719
H        1.5334096232   -1.6844647120    5.7193958116
H        3.1353330726   -2.4599816590    2.7355714454
H        3.3639672429   -2.6510263839    0.2761816535
15   

H        2.0401965004   -1.1866168308   -1.2236655149
C        1.9256939642   -1.1083638297   -0.1459942849
C        2.6489175588   -1.9537233087    0.7011597337
C        2.5017324774   -1.8517468180    2.0907549812
C        1.6270710150   -0.9213588956    2.6441673895
C        0.9177713364   -0.0597307168    1.7893952698
C        1.0602962732   -0.1566433655    0.4005045022
H        0.5019775737    0.5104154292   -0.2502097518
H        0.2537897430    0.6897961071    2.2143288515
C        1.4956788248   -0.7734899047    4.1107672385
O        1.2113706235    0.2520767369    4.6764130352
O        1.7686307936   -1.9065713539    4.7996538684
H        1.6502099514   -1.6594060297    5.7283728966
H        3.0806725563   -2.5125272366    2.7312405184
H        3.3291005064   -2.6893796579    0.2814062410
15   

H        2.0648544667   -1.1740153544   -1.2244974988
C        1.9406965955   -1.1009768443   -0.1475280434
C        2.6308866281   -1.9717980520    0.7007474099
C        2.4713770199   -1.8775965807    2.0896518253
C        1.6211151905   -0.9241232014    2.6435138155
C        0.9377966394   -0.0436201610    1.7849997341
C        1.0931462440   -0.1330594476    0.3971575253
H        0.5565640880    0.5511416140   -0.2540590786
H        0.2815476904    0.7154938154    2.2051743227
C        1.4546560578   -0.7934231178    4.1070663019
O        0.9511230189    0.1524037904    4.6606374231
O        1.9392657888   -1.8416820073    4.8143220770
H        1.7607572894   -1.6121209943    5.7380121109
H        3.0265198199   -2.5652936557    2.7226411279
H        3.2946105452   -2.7230503074    0.2822494079
15   

H        2.1248479423   -1.0886096508   -1.2217068584
C        1.9689205371   -1.0630878831   -0.1466950752
C        3.0551203945   -1.1833803344    0.7247592591
C        2.8547364967   -1.1505359610    2.1112145931
C        1.5758198306   -0.9981885517    2.6410089043
C        0.4868535528   -0.8776673123    1.7576335723
C        0.6811191677   -0.9097913042    0.3722463091
H       -0.1692853258   -0.8155214633   -0.2971323576
H       -0.5184873118   -0.7580303333    2.1557491099
C        1.3386134267   -0.9604966406    4.0999134626
O        0.2563915372   -0.8311031359    4.6169866066
O        2.4596394810   -1.0856136290    4.8494203488
H        2.1436198297   -1.0425285896    5.7637993732
H        3.7224387016   -1.2469562519    2.7588657543
H        4.0585607873   -1.3027877120    0.3261256785
