15   

H        1.8844935556   -1.1974200474   -1.1372585079
C        1.8989339066   -1.1491127492   -0.0516464069
C        2.9606386967   -1.7132785807    0.6606500798
C        2.9827134211   -1.6488093273    2.0589105178
C        1.9377028543   -1.0273779444    2.7676380944
C        0.8787666788   -0.4514142904    2.0340831258
C        0.8609408557   -0.5150152324    0.6357976904
H        0.0425734642   -0.0641723485    0.0808480490
H        0.0688490977    0.0724054900    2.5336846009
C        1.9680883683   -0.9741836753    4.2380957310
O        2.9986688411   -1.1458666493    4.8281181973
O        0.8176975165   -0.7689074310    4.9117198680
H        0.0392111191   -0.8750488027    4.3499162352
H        3.8160684119   -2.0885457207    2.6033600223
H        3.7727416570   -2.2015677466    0.1292362565
15   

H        1.8836838545   -1.2630103984   -1.1392453748
C        1.8975226298   -1.2019009692   -0.0542863918
C        2.9496726434   -1.7733271910    0.6666857247
C        2.9716428887   -1.6911708649    2.0642106766
C        1.9362479758   -1.0429491347    2.7629976049
C        0.8870062208   -0.4610403200    2.0206384447
C        0.8685992946   -0.5432296780    0.6235234754
H        0.0576356003   -0.0865724891    0.0625007179
H        0.0863564718    0.0823150827    2.5150111364
C        1.9669687079   -0.9570535557    4.2318023284
O        2.9799005709   -1.1865343014    4.8318113293
O        0.8201727735   -0.6788308861    4.8963827097
H        0.0378198781   -0.9607343381    4.4072733019
H        3.7987930106   -2.1346289987    2.6149758347
H        3.7551817512   -2.2796939905    0.1422565298
15   

H        1.8958567745   -1.3125262561   -1.1453664322
C        1.9057476235   -1.2419902987   -0.0609622062
C        2.9499881030   -1.8156637924    0.6699220016
C        2.9671851383   -1.7205185600    2.0668767416
C        1.9351434494   -1.0554384449    2.7547949965
C        0.8935606918   -0.4730765390    2.0023511201
C        0.8794361885   -0.5687348711    0.6062297188
H        0.0740232322   -0.1107506795    0.0383714318
H        0.0955333288    0.0802573763    2.4903452874
C        1.9609905227   -0.9456727612    4.2222483695
O        2.9519553600   -1.2277853219    4.8353878664
O        0.8187513595   -0.5924102168    4.8733903761
H        0.0425735843   -1.0278828458    4.5047395272
H        3.7891215058   -2.1644751203    2.6248738323
H        3.7535381951   -2.3330199069    0.1533504280
15   

H        1.9219718359   -1.3339156766   -1.1566099936
C        1.9243964862   -1.2605747073   -0.0723826496
C        2.9607575462   -1.8366231944    0.6679757355
C        2.9681674033   -1.7376224072    2.0649097478
C        1.9345566433   -1.0648737988    2.7430506538
C        0.9004967306   -0.4818511139    1.9810003135
C        0.8957307408   -0.5817162779    0.5852595602
H        0.0953828752   -0.1228761887    0.0110261208
H        0.0999304950    0.0732025299    2.4631308508
C        1.9493342915   -0.9460609383    4.2102323805
O        2.9158055587   -1.2749738308    4.8379288803
O        0.8161862423   -0.5120029357    4.8460307092
H        0.0570692655   -1.0667189309    4.6424410287
H        3.7844014091   -2.1830022678    2.6299490925
H        3.7659049076   -2.3585287356    0.1586085746
15   

H        1.9614591185   -1.3224521240   -1.1733831933
C        1.9526691115   -1.2536321349   -0.0889316092
C        2.9803837086   -1.8339641718    0.6601907145
C        2.9726528547   -1.7413280706    2.0576742176
C        1.9329479955   -1.0694522567    2.7274529573
C        0.9072825526   -0.4834600228    1.9565353115
C        0.9172633063   -0.5772640951    0.5605015693
H        0.1222314314   -0.1165984585   -0.0195440004
H        0.0997708833    0.0659215072    2.4336876475
C        1.9291469593   -0.9584922434    4.1957048625
O        2.8728577852   -1.3252648400    4.8365564315
O        0.8133844471   -0.4410311361    4.8144917730
H        0.0849205742   -1.0676986832    4.8165559905
H        3.7819585228   -2.1906075911    2.6293903406
H        3.7902744849   -2.3546132022    0.1571933455
15   

H        2.0124565119   -1.2864747642   -1.1912261748
C        1.9887773339   -1.2287901364   -0.1063863646
C        3.0061168317   -1.8165352692    0.6511130538
C        2.9781722521   -1.7393911322    2.0493701219
C        1.9290748404   -1.0744378445    2.7116018846
C        0.9136895454   -0.4819140156    1.9320996602
C        0.9434506036   -0.5606573715    0.5354815185
H        0.1548847568   -0.0960883441   -0.0501665395
H        0.0962555649    0.0568900583    2.4044461946
C        1.8997871122   -0.9847514010    4.1816005266
O        2.8238530391   -1.3846174627    4.8327035659
O        0.8135777641   -0.3840208727    4.7813433930
H        0.1343895329   -1.0226726858    5.0130015120
H        3.7788309082   -2.1957351696    2.6274558660
H        3.8230986518   -2.3317329706    0.1541034063
15   

H        2.0645040759   -1.2497907225   -1.2060702952
C        2.0244607102   -1.2045400281   -0.1211551955
C        3.0313922233   -1.7988627500    0.6450793550
C        2.9814344257   -1.7388699238    2.0436468611
C        1.9210669288   -1.0834192678    2.6976824442
C        0.9160062647   -0.4850809793    1.9090843685
C        0.9674050677   -0.5471103937    0.5123178322
H        0.1854251031   -0.0791883761   -0.0793918445
H        0.0874401050    0.0417420337    2.3755823889
C        1.8644648008   -1.0160943889    4.1688027370
O        2.7728100942   -1.4446641856    4.8270544181
O        0.8118864082   -0.3497796604    4.7476219735
H        0.2118289264   -0.9483311713    5.2015783603
H        3.7735218687   -2.2016543584    2.6282144642
H        3.8568854493   -2.3066817031    0.1546784949
15   

H        2.1054455628   -1.2293159750   -1.2160888932
C        2.0505340643   -1.1936000419   -0.1314942385
C        3.0484451842   -1.7918562589    0.6434469886
C        2.9786914604   -1.7449526575    2.0417404401
C        1.9079280715   -1.0974843428    2.6870002323
C        0.9117384440   -0.4960070482    1.8893557691
C        0.9825101268   -0.5455214895    0.4929979277
H        0.2062812934   -0.0760467976   -0.1049746376
H        0.0733026440    0.0209138001    2.3493632390
C        1.8283881370   -1.0446122746    4.1582436765
O        2.7179718929   -1.5063816611    4.8231421996
O        0.8069430448   -0.3321011349    4.7179690519
H        0.3143682362   -0.8555188143    5.3592646619
H        3.7635689607   -2.2116279994    2.6327607087
H        3.8820060271   -2.2930865038    0.1600399139
15   

H        2.1394883622   -1.2160434992   -1.2221952713
C        2.0722205919   -1.1858853072   -0.1381439056
C        3.0670435112   -1.7782157690    0.6453541628
C        2.9811016054   -1.7386522352    2.0430447547
C        1.8969654735   -1.1044842886    2.6790749362
C        0.9035466350   -0.5098749927    1.8727669680
C        0.9906816479   -0.5516358565    0.4771413120
H        0.2160771122   -0.0875751954   -0.1271101583
H        0.0537419034   -0.0056923547    2.3261891376
C        1.7990648920   -1.0595077510    4.1496555281
O        2.6824298442   -1.5240885205    4.8235997111
O        0.7732368745   -0.3583201056    4.6950982431
H        0.4261107457   -0.8002211738    5.4800723659
H        3.7633063320   -2.2011858548    2.6407207962
H        3.9105043675   -2.2695022895    0.1690191916
15   

H        2.1597448945   -1.2033832017   -1.2262396157
C        2.0832519769   -1.1788111559   -0.1426678883
C        3.0755007871   -1.7680934937    0.6464289206
C        2.9774348416   -1.7359640844    2.0435415234
C        1.8837098628   -1.1121669783    2.6732721658
C        0.8925899557   -0.5213335542    1.8614179908
C        0.9918683980   -0.5555180241    0.4664149701
H        0.2186282433   -0.0946629909   -0.1420061723
H        0.0346042257   -0.0271809234    2.3106038843
C        1.7732870249   -1.0739648113    4.1431193128
O        2.6438235577   -1.5544947917    4.8245015410
O        0.7398915337   -0.3917709077    4.6809002893
H        0.5372040601   -0.7272520831    5.5655056809
H        3.7573402787   -2.1965316126    2.6456597617
H        3.9261317044   -2.2515443791    0.1748758265
15   

H        2.1789417792   -1.1891636841   -1.2286857685
C        2.0951948433   -1.1693602188   -0.1455580332
C        3.0879520429   -1.7519818860    0.6479100476
C        2.9803054713   -1.7262461348    2.0444749624
C        1.8762485981   -1.1158353547    2.6690326443
C        0.8843676085   -0.5322712566    1.8529575503
C        0.9934306867   -0.5596111917    0.4585595205
H        0.2193009447   -0.1046365609   -0.1531420928
H        0.0177616865   -0.0501257157    2.2987512204
C        1.7556122556   -1.0841983111    4.1380086188
O        2.6168413565   -1.5725990153    4.8267423208
O        0.6983528723   -0.4453050078    4.6712337923
H        0.6316876847   -0.6531752277    5.6154516743
H        3.7600852662   -2.1822087657    2.6502157639
H        3.9460936523   -2.2257201179    0.1801388271
15   

H        2.1947093377   -1.1718836621   -1.2287385098
C        2.1059432074   -1.1574055183   -0.1459279987
C        3.1015682803   -1.7322140430    0.6496835028
C        2.9872630261   -1.7136296270    2.0458506722
C        1.8733528728   -1.1187092054    2.6677265039
C        0.8783352528   -0.5435165421    1.8495569589
C        0.9943545908   -0.5631266434    0.4556079004
H        0.2175711957   -0.1149024233   -0.1577146893
H        0.0034070456   -0.0748169538    2.2934742935
C        1.7453914501   -1.0948628721    4.1361247707
O        2.6008503096   -1.5892390423    4.8282279659
O        0.6573532767   -0.5109993448    4.6661296362
H        0.6999540803   -0.5653297355    5.6333404788
H        3.7687563028   -2.1642674332    2.6533532413
H        3.9667852369   -2.1948490900    0.1838447099
15   

H        2.2009566032   -1.1492647133   -1.2274151208
C        2.1103657216   -1.1418637785   -0.1446824969
C        3.1111860745   -1.7098728016    0.6492512443
C        2.9943876848   -1.7007219165    2.0452877901
C        1.8725082426   -1.1226096792    2.6688164885
C        0.8719678252   -0.5547387474    1.8522412566
C        0.9908178934   -0.5643428746    0.4584082200
H        0.2096532249   -0.1221174354   -0.1536996606
H       -0.0099820683   -0.1003998469    2.2971487893
C        1.7418442730   -1.1091455964    4.1372136933
O        2.5956126918   -1.6110677238    4.8255151724
O        0.6233657383   -0.5811850372    4.6669061589
H        0.7381070498   -0.4603452269    5.6215966941
H        3.7795619551   -2.1469083758    2.6513400797
H        3.9821053376   -2.1604549731    0.1822178449
15   

H        2.2026728027   -1.1255861043   -1.2237605318
C        2.1119106445   -1.1268731455   -0.1410125367
C        3.1182193162   -1.6906745354    0.6488963084
C        3.0011152731   -1.6930465033    2.0449098743
C        1.8732827271   -1.1310613702    2.6726712330
C        0.8668780972   -0.5679286467    1.8599342886
C        0.9863087617   -0.5655927157    0.4660945874
H        0.2005511603   -0.1274232351   -0.1430494763
H       -0.0207214410   -0.1274440826    2.3074102448
C        1.7424952170   -1.1297652323    4.1413428617
O        2.5948125588   -1.6433128635    4.8216728059
O        0.5999815756   -0.6453155250    4.6728259354
H        0.7516274357   -0.3386777537    5.5778857632
H        3.7903555689   -2.1366962546    2.6475672904
H        3.9934506374   -2.1295429286    0.1787636519
15   

H        2.2024648136   -1.1019280800   -1.2185600759
C        2.1118859903   -1.1140113021   -0.1358545275
C        3.1222847314   -1.6781115946    0.6485449475
C        3.0053444666   -1.6947195567    2.0444458971
C        1.8736981394   -1.1466493750    2.6777309894
C        0.8627366753   -0.5838345348    1.8704081093
C        0.9821138766   -0.5671699747    0.4766438637
H        0.1928141292   -0.1297429230   -0.1284576310
H       -0.0290860353   -0.1557969642    2.3214026472
C        1.7438414781   -1.1595802722    4.1464666813
O        2.5896860048   -1.6921495693    4.8182448066
O        0.5891282398   -0.6919400859    4.6844710685
H        0.7563898927   -0.2017431636    5.4991409894
H        3.7975846165   -2.1390640044    2.6427031790
H        4.0004385104   -2.1065276202    0.1742145642
15   

H        2.1953522981   -1.0663820134   -1.2108988288
C        2.1066557317   -1.0918921143   -0.1282545544
C        3.1239509281   -1.6550177556    0.6478066631
C        3.0094302224   -1.6892419193    2.0435157295
C        1.8734205792   -1.1600166256    2.6850079772
C        0.8549324383   -0.5989516320    1.8860753197
C        0.9721504557   -0.5642950019    0.4923987392
H        0.1772316718   -0.1286926779   -0.1066535289
H       -0.0417743642   -0.1876331096    2.3427181617
C        1.7466703787   -1.1927006338    4.1535260743
O        2.5937320746   -1.7315294789    4.8159687824
O        0.5843146081   -0.7355471359    4.7051185344
H        0.7467312763   -0.0720023406    5.3842247046
H        3.8067839775   -2.1333057872    2.6352570524
H        4.0054232000   -2.0694200641    0.1671662523
15   

H        2.1905533635   -1.0213703850   -1.1987917915
C        2.1017219401   -1.0645345616   -0.1166930369
C        3.1207458197   -1.6369396866    0.6502416160
C        3.0057165794   -1.6948709724    2.0450528459
C        1.8682638013   -1.1791196110    2.6946364278
C        0.8474457795   -0.6093410942    1.9051267350
C        0.9649168982   -0.5516324652    0.5121743175
H        0.1680687559   -0.1106580042   -0.0803951741
H       -0.0525445973   -0.2119585157    2.3675001787
C        1.7415377547   -1.2388741136    4.1617086621
O        2.5707483659   -1.8108536126    4.8153960276
O        0.6010843426   -0.7318112742    4.7354542568
H        0.7746778590    0.0717176422    5.2340679807
H        3.8038068554   -2.1467741806    2.6299687551
H        4.0036755028   -2.0406682281    0.1631578508
15   

H        2.1933849545   -0.9585693780   -1.1807848607
C        2.1027767995   -1.0221800990   -0.0998086993
C        3.1220268119   -1.6064634507    0.6578005272
C        3.0042533484   -1.6921161056    2.0508719053
C        1.8645633168   -1.1913431364    2.7078743576
C        0.8429091245   -0.6101796777    1.9280109141
C        0.9629591443   -0.5252925088    0.5366049091
H        0.1652697409   -0.0772576238   -0.0495695156
H       -0.0614247022   -0.2288638556    2.3953416678
C        1.7335388424   -1.2860344471    4.1719997394
O        2.5470548902   -1.8862473052    4.8167177345
O        0.6300298214   -0.7166576198    4.7707461311
H        0.8013009899    0.1859379278    5.0515046476
H        3.8016452929   -2.1543807404    2.6287687760
H        4.0068283270   -1.9987520178    0.1647056873
15   

H        2.1961115007   -0.8971935090   -1.1598399822
C        2.1040468642   -0.9792927860   -0.0801953667
C        3.1227982301   -1.5758688736    0.6684096128
C        3.0027378456   -1.6868084741    2.0594089773
C        1.8619998591   -1.1980359255    2.7233556158
C        0.8401438752   -0.6051398302    1.9526577425
C        0.9623532801   -0.4955510147    0.5631023677
H        0.1643578028   -0.0402563639   -0.0171142911
H       -0.0679701466   -0.2380805446    2.4240024783
C        1.7266404034   -1.3255009760    4.1840133022
O        2.5229630600   -1.9593881536    4.8163580767
O        0.6772146513   -0.6878127990    4.8066287795
H        0.8182109921    0.2612737249    4.8588856084
H        3.7989484782   -2.1598203026    2.6303691533
H        4.0085886599   -1.9589643605    0.1697935382
15   

H        2.1842852038   -0.8585482863   -1.1414676334
C        2.0943902657   -0.9525179688   -0.0625689735
C        3.1143787709   -1.5582360738    0.6768466509
C        2.9970343583   -1.6853270584    2.0665800645
C        1.8585782026   -1.2025918871    2.7386674993
C        0.8345053128   -0.6014722166    1.9771906622
C        0.9539602912   -0.4762121075    0.5886200373
H        0.1545089468   -0.0157493893    0.0144366113
H       -0.0748369378   -0.2435541229    2.4530390160
C        1.7265273604   -1.3498802070    4.1973750642
O        2.5033872645   -2.0224477502    4.8141403649
O        0.7378355067   -0.6540096401    4.8415042669
H        0.8071218129    0.2927487769    4.6857321843
H        3.7938326611   -2.1659293231    2.6304989812
H        3.9988769119   -1.9363330250    0.1720612471
15   

H        2.1519654242   -0.8483857115   -1.1305806871
C        2.0684167500   -0.9471888215   -0.0515703760
C        3.0908446148   -1.5603922898    0.6780555150
C        2.9819751395   -1.6937155684    2.0677329135
C        1.8505829890   -1.2086874762    2.7499152193
C        0.8228090771   -0.6013008614    1.9982676017
C        0.9337292790   -0.4703425001    0.6093645727
H        0.1321360152   -0.0054366902    0.0417261210
H       -0.0838768061   -0.2448881218    2.4799885208
C        1.7320711998   -1.3605416134    4.2090352845
O        2.4827789562   -2.0780719343    4.8083070248
O        0.8064597221   -0.6146808271    4.8726823357
H        0.7703691066    0.2911116053    4.5467541279
H        3.7807920866   -2.1795707226    2.6243960280
H        3.9708333098   -1.9392193556    0.1658970999
15   

H        2.1034464277   -0.8647362850   -1.1265590728
C        2.0299577472   -0.9618892272   -0.0466412104
C        3.0549723770   -1.5824921599    0.6727650544
C        2.9596141937   -1.7129686024    2.0635170276
C        1.8403918365   -1.2166665435    2.7574642951
C        0.8086434970   -0.6030551771    2.0161143963
C        0.9059197724   -0.4755934108    0.6256774197
H        0.1023030136   -0.0056219568    0.0650783020
H       -0.0911776747   -0.2394276002    2.5047618445
C        1.7446223341   -1.3600076061    4.2189671693
O        2.4629092781   -2.1234719283    4.8019672369
O        0.8796570551   -0.5710231832    4.8998162704
H        0.7137027303    0.2641688277    4.4462888539
H        3.7609858881   -2.2031444066    2.6127945427
H        3.9269278446   -1.9684388233    0.1521720486
15   

H        2.0483847280   -0.9004158910   -1.1277959837
C        1.9860204980   -0.9912979230   -0.0466174979
C        3.0102283220   -1.6234171026    0.6635164191
C        2.9298561967   -1.7446075017    2.0558630483
C        1.8278820549   -1.2264087389    2.7613002964
C        0.7957507935   -0.6018690409    2.0292907140
C        0.8776565502   -0.4847311744    0.6367623972
H        0.0748417389   -0.0057041710    0.0827090439
H       -0.0926422233   -0.2202685465    2.5243606119
C        1.7595309640   -1.3521489483    4.2260582469
O        2.4386431647   -2.1607922615    4.7957947108
O        0.9540667574   -0.5217591351    4.9195930511
H        0.6435555903    0.2202057428    4.3848023805
H        3.7315616545   -2.2417003172    2.5984872083
H        3.8706087158   -2.0242148629    0.1348909294
15   

H        1.9917976727   -0.9392948810   -1.1330649134
C        1.9428090020   -1.0198698746   -0.0503764116
C        2.9616871797   -1.6704030195    0.6501079178
C        2.8991547404   -1.7770409108    2.0443380146
C        1.8214304001   -1.2257578574    2.7626953389
C        0.7944333766   -0.5812705747    2.0399380642
C        0.8580598316   -0.4798275039    0.6450006943
H        0.0601727356    0.0153260026    0.0980750197
H       -0.0754954071   -0.1674587742    2.5406469086
C        1.7842871622   -1.3319355372    4.2312349782
O        2.4463606446   -2.1623385220    4.7902618717
O        1.0071228433   -0.4880721497    4.9361936299
H        0.5258446077    0.1308077647    4.3713537733
H        3.6984624020   -2.2865953561    2.5789397366
H        3.8049752076   -2.0954976757    0.1129562933
