15   

H        1.8844932623   -1.1974218292   -1.1372584382
C        1.8989336294   -1.1491142901   -0.0516463482
C        2.9606384575   -1.7132799076    0.6606502513
C        2.9827132315   -1.6488102812    2.0589106768
C        1.9377026776   -1.0273787269    2.7676381208
C        0.8787664439   -0.4514153316    2.0340830232
C        0.8609405687   -0.5150166534    0.6357976114
H        0.0425731447   -0.0641739362    0.0808478789
H        0.0688488812    0.0724046085    2.5336843606
C        1.9680883683   -0.9741836753    4.2380957310
O        2.9986688411   -1.1458666493    4.8281181973
O        0.8176975165   -0.7689074310    4.9117198680
H        0.0392111191   -0.8750488027    4.3499162352
H        3.8160682906   -2.0885464402    2.6033602624
H        3.7727414253   -2.2015691541    0.1292365158
15   

H        1.8836832020   -1.2630140526   -1.1392451698
C        1.8975220238   -1.2019040951   -0.0542862169
C        2.9496720411   -1.7733300033    0.6666861442
C        2.9716423899   -1.6911729167    2.0642110576
C        1.9362475804   -1.0429507070    2.7629976970
C        0.8870057982   -0.4610422662    2.0206382718
C        0.8685987656   -0.5432323908    0.6235233542
H        0.0576350928   -0.0865754063    0.0625003966
H        0.0863561763    0.0823135781    2.5150106855
C        1.9669687079   -0.9570535557    4.2318023284
O        2.9799005709   -1.1865343014    4.8318113293
O        0.8201727735   -0.6788308861    4.8963827097
H        0.0378198781   -0.9607343381    4.4072733019
H        3.7987925877   -2.1346306828    2.6149763921
H        3.7551811144   -2.2796970734    0.1422571570
15   

H        1.8958551096   -1.3125321679   -1.1453660132
C        1.9057461469   -1.2419953371   -0.0609618443
C        2.9499867263   -1.8156682835    0.6699226575
C        2.9671840976   -1.7205217801    2.0668773160
C        1.9351426416   -1.0554409133    2.7547951909
C        0.8935597242   -0.4730796690    2.0023510045
C        0.8794348912   -0.5687392677    0.6062296997
H        0.0740218838   -0.1107554529    0.0383711799
H        0.0955325996    0.0802549249    2.4903447990
C        1.9609905227   -0.9456727612    4.2222483695
O        2.9519553600   -1.2277853219    4.8353878664
O        0.8187513595   -0.5924102168    4.8733903761
H        0.0425735843   -1.0278828458    4.5047395272
H        3.7891206568   -2.1644777198    2.6248746157
H        3.7535367008   -2.3330248540    0.1533513576
15   

H        1.9219696213   -1.3339230999   -1.1566094216
C        1.9243944945   -1.2605810644   -0.0723821512
C        2.9607556019   -1.8366289869    0.6679766119
C        2.9681658697   -1.7376266281    2.0649105136
C        1.9345554769   -1.0648769714    2.7430509288
C        0.9004954438   -0.4818549899    1.9810002028
C        0.8957290433   -0.5817217223    0.5852595689
H        0.0953811935   -0.1228819820    0.0110258256
H        0.0999296128    0.0731996287    2.4631302946
C        1.9493342915   -0.9460609383    4.2102323805
O        2.9158055587   -1.2749738308    4.8379288803
O        0.8161862423   -0.5120029357    4.8460307092
H        0.0570692655   -1.0667189309    4.6424410287
H        3.7844000776   -2.1830057809    2.6299501210
H        3.7659027771   -2.3585351584    0.1586098046
15   

H        1.9614561992   -1.3224605744   -1.1733825969
C        1.9526664911   -1.2536394078   -0.0889310860
C        2.9803812277   -1.8339707371    0.6601916011
C        2.9726508976   -1.7413328828    2.0576749914
C        1.9329464448   -1.0694559575    2.7274532466
C        0.9072807687   -0.4834646071    1.9565352381
C        0.9172609927   -0.5772704396    0.5605016157
H        0.1222290704   -0.1166052494   -0.0195442453
H        0.0997695504    0.0659179650    2.4336871429
C        1.9291469593   -0.9584922434    4.1957048625
O        2.8728577852   -1.3252648400    4.8365564315
O        0.8133844471   -0.4410311361    4.8144917730
H        0.0849205742   -1.0676986832    4.8165559905
H        3.7819568782   -2.1906115242    2.6293913642
H        3.7902718258   -2.3546203899    0.1571945886
15   

H        2.0124522779   -1.2864835973   -1.1912257462
C        1.9887736292   -1.2287977387   -0.1063859919
C        3.0061134863   -1.8165420287    0.6511135974
C        2.9781697490   -1.7393960456    2.0493705817
C        1.9290728546   -1.0744416930    2.7116020852
C        0.9136870967   -0.4819188830    1.9320996834
C        0.9434473063   -0.5606640936    0.5354816298
H        0.1548812575   -0.0960956123   -0.0501665929
H        0.0962536508    0.0568862269    2.4044459606
C        1.8997871122   -0.9847514010    4.1816005266
O        2.8238530391   -1.3846174627    4.8327035659
O        0.8135777641   -0.3840208727    4.7813433930
H        0.1343895329   -1.0226726858    5.0130015120
H        3.7788288933   -2.1957390686    2.6274564456
H        3.8230950618   -2.3317402937    0.1541041305
15   

H        2.0644994817   -1.2497983730   -1.2060701173
C        2.0244567440   -1.2045466181   -0.1211550372
C        3.0313886989   -1.7988686088    0.6450795062
C        2.9814318661   -1.7388741923    2.0436469809
C        1.9210649158   -1.0834226270    2.6976825307
C        0.9160037090   -0.4850852287    1.9090844637
C        0.9674015437   -0.5471162429    0.5123179628
H        0.1854212874   -0.0791947090   -0.0793917156
H        0.0874380864    0.0417386744    2.3755824369
C        1.8644648008   -1.0160943889    4.1688027370
O        2.7728100942   -1.4446641856    4.8270544181
O        0.8118864082   -0.3497796604    4.7476219735
H        0.2118289264   -0.9483311713    5.2015783603
H        3.7735198389   -2.2016577405    2.6282145731
H        3.8568816312   -2.3066880480    0.1546786540
15   

H        2.1054417985   -1.2293219282   -1.2160888567
C        2.0505308062   -1.1936051917   -0.1314942017
C        3.0484423076   -1.7918608083    0.6434470018
C        2.9786893581   -1.7449559694    2.0417404477
C        1.9079263815   -1.0974869934    2.6870002525
C        0.9117362777   -0.4960104498    1.8893558241
C        0.9825071955   -0.5455261144    0.4929979851
H        0.2062781123   -0.0760518184   -0.1049745687
H        0.0733008751    0.0209110329    2.3493633088
C        1.8283881370   -1.0446122746    4.1582436765
O        2.7179718929   -1.5063816611    4.8231421996
O        0.8069430448   -0.3321011349    4.7179690519
H        0.3143682362   -0.8555188143    5.3592646619
H        3.7635673171   -2.2116305670    2.6327607017
H        3.8820029420   -2.2930913875    0.1600399125
15   

H        2.1394854592   -1.2160479165   -1.2221953183
C        2.0722180901   -1.1858891221   -0.1381439444
C        3.0670412958   -1.7782191602    0.6453540774
C        2.9810999997   -1.7386547046    2.0430446793
C        1.8969642094   -1.1044862377    2.6790749163
C        0.9035450189   -0.5098774651    1.8727669921
C        0.9906794211   -0.5516392533    0.4771413247
H        0.2160746922   -0.0875788793   -0.1271101178
H        0.0537406079   -0.0056943171    2.3261891935
C        1.7990648920   -1.0595077510    4.1496555281
O        2.6824298442   -1.5240885205    4.8235997111
O        0.7732368745   -0.3583201056    4.6950982431
H        0.4261107457   -0.8002211738    5.4800723659
H        3.7633050606   -2.2011878016    2.6407206879
H        3.9105019650   -2.2695059554    0.1690190601
15   

H        2.1597431798   -1.2033858366   -1.2262396734
C        2.0832504968   -1.1788134427   -0.1426679373
C        3.0754994456   -1.7680955887    0.6464288407
C        2.9774338491   -1.7359656497    2.0435414565
C        1.8837090941   -1.1121681897    2.6732721406
C        0.8925890183   -0.5213350072    1.8614179950
C        0.9918671129   -0.5555200069    0.4664149628
H        0.2186268819   -0.0946650716   -0.1420061571
H        0.0346035097   -0.0271820123    2.3106039135
C        1.7732870249   -1.0739648113    4.1431193128
O        2.6438235577   -1.5544947917    4.8245015410
O        0.7398915337   -0.3917709077    4.6809002893
H        0.5372040601   -0.7272520831    5.5655056809
H        3.7573394646   -2.1965329005    2.6456596770
H        3.9261302412   -2.2515466600    0.1748757134
15   

H        2.1789406570   -1.1891653313   -1.2286858265
C        2.0951939105   -1.1693615966   -0.1455580823
C        3.0879512066   -1.7519831460    0.6479099653
C        2.9803048956   -1.7262470293    2.0444748945
C        1.8762481894   -1.1158359995    2.6690326235
C        0.8843671070   -0.5322720160    1.8529575592
C        0.9934299205   -0.5596123206    0.4585595188
H        0.2193001208   -0.1046377542   -0.1531420695
H        0.0177613438   -0.0501262132    2.2987512506
C        1.7556122556   -1.0841983111    4.1380086188
O        2.6168413565   -1.5725990153    4.8267423208
O        0.6983528723   -0.4453050078    4.6712337923
H        0.6316876847   -0.6531752277    5.6154516743
H        3.7600847878   -2.1822095138    2.6502156804
H        3.9460927046   -2.2257215475    0.1801387129
15   

H        2.1947093466   -1.1718833819   -1.2287385122
C        2.1059432066   -1.1574053198   -0.1459279999
C        3.1015683374   -1.7322137786    0.6496834750
C        2.9872630765   -1.7136294560    2.0458506464
C        1.8733528640   -1.1187091789    2.6677265057
C        0.8783351767   -0.5435166029    1.8495569889
C        0.9943545193   -0.5631266136    0.4556079323
H        0.2175710727   -0.1149024426   -0.1577146232
H        0.0034069122   -0.0748171429    2.2934743439
C        1.7453914501   -1.0948628721    4.1361247707
O        2.6008503096   -1.5892390423    4.8282279659
O        0.6573532767   -0.5109993448    4.6661296362
H        0.6999540803   -0.5653297355    5.6333404788
H        3.7687563997   -2.1642672077    2.6533531920
H        3.9667853520   -2.1948486942    0.1838446633
15   

H        2.2009571837   -1.1492634421   -1.2274150755
C        2.1103662365   -1.1418626502   -0.1446824558
C        3.1111864807   -1.7098718965    0.6492512643
C        2.9943879863   -1.7007212568    2.0452877990
C        1.8725085371   -1.1226090552    2.6688165135
C        0.8719682374   -0.5547378676    1.8522413101
C        0.9908184189   -0.5643417433    0.4584082807
H        0.2096538321   -0.1221161366   -0.1536995820
H       -0.0099816835   -0.1003990235    2.2971488518
C        1.7418442730   -1.1091455964    4.1372136933
O        2.5956126918   -1.6110677238    4.8255151724
O        0.6233657383   -0.5811850372    4.6669061589
H        0.7381070498   -0.4603452269    5.6215966941
H        3.7795621435   -2.1469079494    2.6513400669
H        3.9821057290   -2.1604540865    0.1822178575
15   

H        2.2026741506   -1.1255831092   -1.2237604103
C        2.1119118117   -1.1268705779   -0.1410124323
C        3.1182204286   -1.6906721278    0.6488963671
C        3.0011161119   -1.6930447135    2.0449099092
C        1.8732833402   -1.1310600582    2.6726712875
C        0.8668787855   -0.5679271346    1.8599343889
C        0.9863097233   -0.5655905869    0.4660947135
H        0.2005521307   -0.1274210457   -0.1430493189
H       -0.0207209806   -0.1274430374    2.3074103502
C        1.7424952170   -1.1297652323    4.1413428617
O        2.5948125588   -1.6433128635    4.8216728059
O        0.5999815756   -0.6453155250    4.6728259354
H        0.7516274357   -0.3386777537    5.5778857632
H        3.7903563018   -2.1366947037    2.6475672849
H        3.9934518811   -2.1295402326    0.1787636856
15   

H        2.2024669572   -1.1019237079   -1.2185598363
C        2.1118878525   -1.1140074995   -0.1358543176
C        3.1222863358   -1.6781083099    0.6485451168
C        3.0053456312   -1.6947171570    2.0444460178
C        1.8736991116   -1.1466473616    2.6777310994
C        0.8627379608   -0.5838318892    1.8704082719
C        0.9821155974   -0.5671664570    0.4766440706
H        0.1928160235   -0.1297390690   -0.1284574067
H       -0.0290849487   -0.1557947195    2.3214027980
C        1.7438414781   -1.1595802722    4.1464666813
O        2.5896860048   -1.6921495693    4.8182448066
O        0.5891282398   -0.6919400859    4.6844710685
H        0.7563898927   -0.2017431636    5.4991409894
H        3.7975854753   -2.1390622123    2.6427032574
H        4.0004401974   -2.1065241650    0.1742147316
15   

H        2.1953549925   -1.0663753844   -1.2108984256
C        2.1066580899   -1.0918864079   -0.1282542018
C        3.1239530362   -1.6550127278    0.6478068545
C        3.0094317910   -1.6892382828    2.0435158432
C        1.8734218470   -1.1600137383    2.6850081614
C        0.8549340193   -0.5989479338    1.8860756729
C        0.9721525731   -0.5642899167    0.4923991753
H        0.1772339332   -0.1286871677   -0.1066529767
H       -0.0417731102   -0.1876301562    2.3427185446
C        1.7466703787   -1.1927006338    4.1535260743
O        2.5937320746   -1.7315294789    4.8159687824
O        0.5843146081   -0.7355471359    4.7051185344
H        0.7467312763   -0.0720023406    5.3842247046
H        3.8067852001   -2.1333029567    2.6352570286
H        4.0054254444   -2.0694146507    0.1671663616
15   

H        2.1905575082   -1.0213625429   -1.1987910971
C        2.1017254995   -1.0645277941   -0.1166924342
C        3.1207489714   -1.6369336671    0.6502422004
C        3.0057188689   -1.6948665673    2.0450532912
C        1.8682655983   -1.1791161338    2.6946367394
C        0.8474480647   -0.6093367014    1.9051270754
C        0.9649200519   -0.5516264536    0.5121748008
H        0.1680721719   -0.1106515205   -0.0803946937
H       -0.0525427818   -0.2119550256    2.3675003818
C        1.7415377547   -1.2388741136    4.1617086621
O        2.5707483659   -1.8108536126    4.8153960276
O        0.6010843426   -0.7318112742    4.7354542568
H        0.7746778590    0.0717176422    5.2340679807
H        3.8038086688   -2.1467706789    2.6299691542
H        4.0036789053   -2.0406617318    0.1631584964
15   

H        2.1933898310   -0.9585610122   -1.1807839048
C        2.1027809823   -1.0221728811   -0.0998078698
C        3.1220304803   -1.6064570854    0.6578013979
C        3.0042560012   -1.6921114658    2.0508725871
C        1.8645654292   -1.1913394276    2.7078747959
C        0.8429118304   -0.6101749600    1.9280113153
C        0.9629628687   -0.5252860573    0.5366055094
H        0.1652737912   -0.0772506492   -0.0495689615
H       -0.0614225354   -0.2288600968    2.3953418097
C        1.7335388424   -1.2860344471    4.1719997394
O        2.5470548902   -1.8862473052    4.8167177345
O        0.6300298214   -0.7166576198    4.7707461311
H        0.8013009899    0.1859379278    5.0515046476
H        3.8016473593   -2.1543771255    2.6287694476
H        4.0068322787   -1.9987451926    0.1647067024
15   

H        2.1961169894   -0.8971862961   -1.1598388892
C        2.1040515381   -0.9792865023   -0.0801944136
C        3.1228023176   -1.5758632621    0.6684108308
C        3.0027407622   -1.6868043050    2.0594099791
C        1.8620021384   -1.1980325912    2.7233561297
C        0.8401468300   -0.6051356559    1.9526579983
C        0.9623574166   -0.4955453857    0.5631028491
H        0.1643623328   -0.0402503298   -0.0171140356
H       -0.0679677775   -0.2380772234    2.4240022739
C        1.7266404034   -1.3255009760    4.1840133022
O        2.5229630600   -1.9593881536    4.8163580767
O        0.6772146513   -0.6878127990    4.8066287795
H        0.8182109921    0.2612737249    4.8588856084
H        3.7989507785   -2.1598169958    2.6303703007
H        4.0085931020   -1.9589583632    0.1697950925
15   

H        2.1842901336   -0.8585421543   -1.1414666337
C        2.0943944468   -0.9525126795   -0.0625681074
C        3.1143824357   -1.5582313552    0.6768477734
C        2.9970369636   -1.6853236254    2.0665809887
C        1.8585802318   -1.2025891773    2.7386679621
C        0.8345079340   -0.6014688067    1.9771908683
C        0.9539639680   -0.4762074283    0.5886204572
H        0.1545129679   -0.0157443606    0.0144368291
H       -0.0748348387   -0.2435514444    2.4530387803
C        1.7265273604   -1.3498802070    4.1973750642
O        2.5033872645   -2.0224477502    4.8141403649
O        0.7378355067   -0.6540096401    4.8415042669
H        0.8071218129    0.2927487769    4.6857321843
H        3.7938347174   -2.1659266250    2.6305000544
H        3.9988809259   -1.9363279101    0.1720626859
15   

H        2.1519697318   -0.8483814274   -1.1305799230
C        2.0684203880   -0.9471850859   -0.0515697151
C        3.0908477746   -1.5603889665    0.6780565077
C        2.9819773563   -1.6937131091    2.0677337532
C        1.8505847023   -1.2086855069    2.7499155655
C        0.8228113359   -0.6012983721    1.9982676105
C        0.9337324829   -0.4703391387    0.6093647462
H        0.1321395522   -0.0054330759    0.0417260262
H       -0.0838749827   -0.2448861259    2.4799880739
C        1.7320711998   -1.3605416134    4.2090352845
O        2.4827789562   -2.0780719343    4.8083070248
O        0.8064597221   -0.6146808271    4.8726823357
H        0.7703691066    0.2911116053    4.5467541279
H        3.7807938325   -2.1795687782    2.6243970921
H        3.9708367711   -1.9392158068    0.1658984465
15   

H        2.1034487973   -0.8647338382   -1.1265586807
C        2.0299597835   -0.9618870792   -0.0466408671
C        3.0549741667   -1.5824902521    0.6727655516
C        2.9596154926   -1.7129671962    2.0635174513
C        1.8403928755   -1.2166653918    2.7574644801
C        0.8086448199   -0.6030537353    2.0161144193
C        0.9059215831   -0.4755914737    0.6256775312
H        0.1023049774   -0.0056198918    0.0650782991
H       -0.0911766029   -0.2394264669    2.5047616394
C        1.7446223341   -1.3600076061    4.2189671693
O        2.4629092781   -2.1234719283    4.8019672369
O        0.8796570551   -0.5710231832    4.8998162704
H        0.7137027303    0.2641688277    4.4462888539
H        3.7609869110   -2.2031433396    2.6127950630
H        3.9269297818   -1.9684367977    0.1521727059
15   

H        2.0483863286   -0.9004144231   -1.1277957840
C        1.9860218477   -0.9912966593   -0.0466173300
C        3.0102294746   -1.6234160247    0.6635167068
C        2.9298569965   -1.7446067344    2.0558632932
C        1.8278826773   -1.2264081190    2.7613003739
C        0.7957516304   -0.6018682081    2.0292906609
C        0.8776577521   -0.4847300150    0.6367623959
H        0.0748430905   -0.0057028713    0.0827089474
H       -0.0926415380   -0.2202678469    2.5243603913
C        1.7595309640   -1.3521489483    4.2260582469
O        2.4386431647   -2.1607922615    4.7957947108
O        0.9540667574   -0.5217591351    4.9195930511
H        0.6435555903    0.2202057428    4.3848023805
H        3.7315622738   -2.2416997523    2.5984875323
H        3.8706099614   -2.0242137318    0.1348913285
15   

H        1.9917977112   -0.9392950273   -1.1330649302
C        1.9428090403   -1.0198699677   -0.0503764239
C        2.9616872365   -1.6704030502    0.6501079363
C        2.8991547880   -1.7770408970    2.0443380361
C        1.8214304196   -1.2257578629    2.7626953361
C        0.7944333942   -0.5812706110    2.0399380352
C        0.8580598575   -0.4798275890    0.6450006592
H        0.0601727558    0.0153258828    0.0980749620
H       -0.0754953973   -0.1674588028    2.5406468586
C        1.7842871622   -1.3319355372    4.2312349782
O        2.4463606446   -2.1623385220    4.7902618717
O        1.0071228433   -0.4880721497    4.9361936299
H        0.5258446077    0.1308077647    4.3713537733
H        3.6984624634   -2.2865952996    2.5789397786
H        3.8049752834   -2.0954976993    0.1129563349
