15   

H        1.8844937158   -1.1974191750   -1.1372585570
C        1.8989340516   -1.1491119862   -0.0516464513
C        2.9606389321   -1.7132777143    0.6606499757
C        2.9827136327   -1.6488086155    2.0589104178
C        1.9377029497   -1.0273775101    2.7676380696
C        0.8787666789   -0.4514139526    2.0340831604
C        0.8609408829   -0.5150147324    0.6357977138
H        0.0425734030   -0.0641719553    0.0808481151
H        0.0688489728    0.0724055757    2.5336846949
C        1.9680883683   -0.9741836753    4.2380957310
O        2.9986688411   -1.1458666493    4.8281181973
O        0.8176975165   -0.7689074310    4.9117198680
H        0.0392111191   -0.8750488027    4.3499162352
H        3.8160686851   -2.0885449614    2.6033598655
H        3.7727419685   -2.2015667014    0.1292361039
15   

H        1.8836841564   -1.2630078551   -1.1392455196
C        1.8975229487   -1.2018987799   -0.0542865175
C        2.9496729451   -1.7733252857    0.6666853947
C        2.9716431551   -1.6911694913    2.0642103754
C        1.9362482299   -1.0429480277    2.7629975357
C        0.8870065175   -0.4610388769    2.0206385852
C        0.8685996232   -0.5432277064    0.6235235822
H        0.0576359206   -0.0865703377    0.0625009842
H        0.0863567224    0.0823162659    2.5150114906
C        1.9669687079   -0.9570535557    4.2318023284
O        2.9799005709   -1.1865343014    4.8318113293
O        0.8201727735   -0.6788308861    4.8963827097
H        0.0378198781   -0.9607343381    4.4072733019
H        3.7987932013   -2.1346279469    2.6149753850
H        3.7551820263   -2.2796919540    0.1422560279
15   

H        1.8958576073   -1.3125226175   -1.1453667029
C        1.9057484009   -1.2419871490   -0.0609624437
C        2.9499888616   -1.8156609527    0.6699215419
C        2.9671857630   -1.7205164560    2.0668763299
C        1.9351439498   -1.0554368178    2.7547948630
C        0.8935612446   -0.4730745296    2.0023512183
C        0.8794368869   -0.5687321078    0.6062297576
H        0.0740239223   -0.1107477208    0.0383716426
H        0.0955337217    0.0802589332    2.4903456356
C        1.9609905227   -0.9456727612    4.2222483695
O        2.9519553600   -1.2277853219    4.8353878664
O        0.8187513595   -0.5924102168    4.8733903761
H        0.0425735843   -1.0278828458    4.5047395272
H        3.7891220305   -2.1644733945    2.6248732659
H        3.7535389871   -2.3330168301    0.1533497790
15   

H        1.9219736734   -1.3339104243   -1.1566103861
C        1.9243980997   -1.2605702100   -0.0723829931
C        2.9607590265   -1.8366191868    0.6679751864
C        2.9681685141   -1.7376194953    2.0649092702
C        1.9345575096   -1.0648715471    2.7430504607
C        0.9004977716   -0.4818482912    1.9810003332
C        0.8957321554   -0.5817123425    0.5852594936
H        0.0953843589   -0.1228719396    0.0110262109
H        0.0999312705    0.0732047246    2.4631311502
C        1.9493342915   -0.9460609383    4.2102323805
O        2.9158055587   -1.2749738308    4.8379288803
O        0.8161862423   -0.5120029357    4.8460307092
H        0.0570692655   -1.0667189309    4.6424410287
H        3.7844023026   -2.1829999209    2.6299484811
H        3.7659064936   -2.3585243731    0.1586078252
15   

H        1.9614617139   -1.3224457942   -1.1733836049
C        1.9526713938   -1.2536266972   -0.0889319679
C        2.9803857748   -1.8339593515    0.6601901712
C        2.9726543966   -1.7413245819    2.0576737531
C        1.9329492183   -1.0694495261    2.7274527578
C        0.9072840596   -0.4834565561    1.9565353065
C        0.9172653391   -0.5772592885    0.5605014768
H        0.1222335855   -0.1165932468   -0.0195439339
H        0.0997720461    0.0659242397    2.4336879015
C        1.9291469593   -0.9584922434    4.1957048625
O        2.8728577852   -1.3252648400    4.8365564315
O        0.8133844471   -0.4410311361    4.8144917730
H        0.0849205742   -1.0676986832    4.8165559905
H        3.7819597451   -2.1906048237    2.6293897626
H        3.7902767021   -2.3546079750    0.1571926235
15   

H        2.0124596600   -1.2864687044   -1.1912264864
C        1.9887800650   -1.2287848963   -0.1063866414
C        3.0061192630   -1.8165306273    0.6511127112
C        2.9781740421   -1.7393877372    2.0493698341
C        1.9290762730   -1.0744351396    2.7116017310
C        0.9136913514   -0.4819105853    1.9320995722
C        0.9434530517   -0.5606526888    0.5354813654
H        0.1548873947   -0.0960832745   -0.0501666420
H        0.0962569966    0.0568928015    2.4044462375
C        1.8997871122   -0.9847514010    4.1816005266
O        2.8238530391   -1.3846174627    4.8327035659
O        0.8135777641   -0.3840208727    4.7813433930
H        0.1343895329   -1.0226726858    5.0130015120
H        3.7788323109   -2.1957324944    2.6274555439
H        3.8231012574   -2.3317279796    0.1541029865
15   

H        2.0645071830   -1.2497855205   -1.2060704223
C        2.0244634100   -1.2045354950   -0.1211553084
C        3.0313946295   -1.7988587081    0.6450792434
C        2.9814362064   -1.7388669342    2.0436467710
C        1.9210683550   -1.0834168795    2.6976823809
C        0.9160080697   -0.4850779644    1.9090843051
C        0.9674074880   -0.5471063294    0.5123177436
H        0.1854276994   -0.0791840042   -0.0793919226
H        0.0874415667    0.0417444699    2.3755823736
C        1.8644648008   -1.0160943889    4.1688027370
O        2.7728100942   -1.4446641856    4.8270544181
O        0.8118864082   -0.3497796604    4.7476219735
H        0.2118289264   -0.9483311713    5.2015783603
H        3.7735232814   -2.2016519936    2.6282143826
H        3.8568880258   -2.3066773757    0.1546783752
15   

H        2.1054480836   -1.2293117757   -1.2160888990
C        2.0505362639   -1.1935964016   -0.1314942417
C        3.0484471507   -1.7918530191    0.6434469799
C        2.9786929212   -1.7449502896    2.0417404357
C        1.9079292360   -1.0974824744    2.6870002321
C        0.9117398995   -0.4960046845    1.8893557791
C        0.9825120935   -0.5455182474    0.4929979366
H        0.2062833968   -0.0760433065   -0.1049746105
H        0.0733037949    0.0209156566    2.3493632661
C        1.8283881370   -1.0446122746    4.1582436765
O        2.7179718929   -1.5063816611    4.8231421996
O        0.8069430448   -0.3321011349    4.7179690519
H        0.3143682362   -0.8555188143    5.3592646619
H        3.7635701262   -2.2116261224    2.6327607106
H        3.8820081429   -2.2930830098    0.1600398991
15   

H        2.1394902762   -1.2160405714   -1.2221952357
C        2.0722222432   -1.1858827642   -0.1381438756
C        3.0670449325   -1.7782135787    0.6453542165
C        2.9811026361   -1.7386506409    2.0430448008
C        1.8969663229   -1.1044829655    2.6790749489
C        0.9035477587   -0.5098732470    1.8727669523
C        0.9906831652   -0.5516335094    0.4771413038
H        0.2160787810   -0.0875726204   -0.1271101848
H        0.0537428430   -0.0056908897    2.3261890904
C        1.7990648920   -1.0595077510    4.1496555281
O        2.6824298442   -1.5240885205    4.8235997111
O        0.7732368745   -0.3583201056    4.6950982431
H        0.4261107457   -0.8002211738    5.4800723659
H        3.7633071137   -2.2011846625    2.6407208585
H        3.9105058641   -2.2694999884    0.1690192660
15   

H        2.1597462194   -1.2033810579   -1.2262395965
C        2.0832531160   -1.1788093121   -0.1426678731
C        3.0755018376   -1.7680917883    0.6464289479
C        2.9774356147   -1.7359628375    2.0435415460
C        1.8837104335   -1.1121660643    2.6732721757
C        0.8925906517   -0.5213324407    1.8614179877
C        0.9918693724   -0.5555164566    0.4664149733
H        0.2186292758   -0.0946613313   -0.1420061753
H        0.0346047500   -0.0271800938    2.3106038676
C        1.7732870249   -1.0739648113    4.1431193128
O        2.6438235577   -1.5544947917    4.8245015410
O        0.7398915337   -0.3917709077    4.6809002893
H        0.5372040601   -0.7272520831    5.5655056809
H        3.7573409388   -2.1965305521    2.6456597899
H        3.9261328726   -2.2515424766    0.1748758629
15   

H        2.1789421567   -1.1891626608   -1.2286857511
C        2.0951951873   -1.1693593276   -0.1455580155
C        3.0879523606   -1.7519811007    0.6479100241
C        2.9803057271   -1.7262455703    2.0444749393
C        1.8762488158   -1.1158349041    2.6690326578
C        0.8843678759   -0.5322706562    1.8529576081
C        0.9934310132   -0.5596103796    0.4585595825
H        0.2193012851   -0.1046356664   -0.1531419879
H        0.0177619161   -0.0501252044    2.2987513021
C        1.7556122556   -1.0841983111    4.1380086188
O        2.6168413565   -1.5725990153    4.8267423208
O        0.6983528723   -0.4453050078    4.6712337923
H        0.6316876847   -0.6531752277    5.6154516743
H        3.7600854694   -2.1822083274    2.6502157138
H        3.9460939842   -2.2257192702    0.1801387703
15   

H        2.1947093542   -1.1718834201   -1.2287385099
C        2.1059432194   -1.1574053553   -0.1459279969
C        3.1015683322   -1.7322138377    0.6496834850
C        2.9872630702   -1.7136294998    2.0458506568
C        1.8733528689   -1.1187091870    2.6677265062
C        0.8783351958   -0.5435165918    1.8495569816
C        0.9943545425   -0.5631266185    0.4556079243
H        0.2175711094   -0.1149024415   -0.1577146459
H        0.0034069420   -0.0748171091    2.2934743355
C        1.7453914501   -1.0948628721    4.1361247707
O        2.6008503096   -1.5892390423    4.8282279659
O        0.6573532767   -0.5109993448    4.6661296362
H        0.6999540803   -0.5653297355    5.6333404788
H        3.7687563789   -2.1642672694    2.6533532128
H        3.9667853308   -2.1948487857    0.1838446704
15   

H        2.2009558097   -1.1492658385   -1.2274152024
C        2.1103650526   -1.1418647429   -0.1446825673
C        3.1111854294   -1.7098737747    0.6492511419
C        2.9943872225   -1.7007226557    2.0452877044
C        1.8725079461   -1.1226101580    2.6688164583
C        0.8719674847   -0.5547392467    1.8522412549
C        0.9908173719   -0.5643436104    0.4584082013
H        0.2096526967   -0.1221181459   -0.1536996535
H       -0.0099822792   -0.1004001234    2.2971488174
C        1.7418442730   -1.1091455964    4.1372136933
O        2.5956126918   -1.6110677238    4.8255151724
O        0.6233657383   -0.5811850372    4.6669061589
H        0.7381070498   -0.4603452269    5.6215966941
H        3.7795615220   -2.1469090980    2.6513399696
H        3.9821045830   -2.1604561157    0.1822177037
15   

H        2.2026716534   -1.1255881088   -1.2237606440
C        2.1119096696   -1.1268748872   -0.1410126340
C        3.1182184025   -1.6906761950    0.6488961958
C        3.0011146091   -1.6930477518    2.0449097869
C        1.8732822547   -1.1310622749    2.6726711862
C        0.8668775371   -0.5679296876    1.8599342507
C        0.9863079559   -0.5655941630    0.4660945291
H        0.2005503186   -0.1274247159   -0.1430495130
H       -0.0207218336   -0.1274448158    2.3074102394
C        1.7424952170   -1.1297652323    4.1413428617
O        2.5948125588   -1.6433128635    4.8216728059
O        0.5999815756   -0.6453155250    4.6728259354
H        0.7516274357   -0.3386777537    5.5778857632
H        3.7903549995   -2.1366973531    2.6475671889
H        3.9934496047   -2.1295447843    0.1787635017
15   

H        2.2024634041   -1.1019315810   -1.2185602499
C        2.1118847603   -1.1140143086   -0.1358546798
C        3.1222835609   -1.6781143731    0.6485448813
C        3.0053435745   -1.6947216091    2.0444458643
C        1.8736974821   -1.1466508754    2.6777309126
C        0.8627359280   -0.5838363236    1.8704079443
C        0.9821128464   -0.5671725142    0.4766436626
H        0.1928130811   -0.1297455974   -0.1284579030
H       -0.0290865550   -0.1557982430    2.3214024505
C        1.7438414781   -1.1595802722    4.1464666813
O        2.5896860048   -1.6921495693    4.8182448066
O        0.5891282398   -0.6919400859    4.6844710685
H        0.7563898927   -0.2017431636    5.4991409894
H        3.7975838425   -2.1390657608    2.6427032118
H        4.0004372187   -2.1065306939    0.1742145422
15   

H        2.1953499848   -1.0663862614   -1.2108991129
C        2.1066537462   -1.0918958099   -0.1282548014
C        3.1239491372   -1.6550211363    0.6478063942
C        3.0094289218   -1.6892444518    2.0435155230
C        1.8734195990   -1.1600185746    2.6850078480
C        0.8549312131   -0.5989539997    1.8860752019
C        0.9721487288   -0.5642982331    0.4923985644
H        0.1772298110   -0.1286961049   -0.1066536716
H       -0.0417752996   -0.1876349225    2.3427181135
C        1.7466703787   -1.1927006338    4.1535260743
O        2.5937320746   -1.7315294789    4.8159687824
O        0.5843146081   -0.7355471359    4.7051185344
H        0.7467312763   -0.0720023406    5.3842247046
H        3.8067829072   -2.1333079014    2.6352568492
H        4.0054212335   -2.0694237480    0.1671659237
15   

H        2.1905505132   -1.0213759086   -1.1987922532
C        2.1017194741   -1.0645393459   -0.1166934382
C        3.1207435971   -1.6369440041    0.6502412365
C        3.0057149503   -1.6948741381    2.0450525592
C        1.8682625288   -1.1791220810    2.6946362158
C        0.8474441971   -0.6093441603    1.9051264949
C        0.9649147322   -0.5516366633    0.5121739805
H        0.1680664462   -0.1106624730   -0.0803955177
H       -0.0525458293   -0.2119608920    2.3675000289
C        1.7415377547   -1.2388741136    4.1617086621
O        2.5707483659   -1.8108536126    4.8153960276
O        0.6010843426   -0.7318112742    4.7354542568
H        0.7746778590    0.0717176422    5.2340679807
H        3.8038055472   -2.1467767255    2.6299685083
H        4.0036730808   -2.0406729328    0.1631574320
15   

H        2.1933812962   -0.9585749031   -1.1807855222
C        2.1027736484   -1.0221849593   -0.0998092799
C        3.1220240106   -1.6064678485    0.6577998305
C        3.0042513085   -1.6921194111    2.0508713382
C        1.8645617209   -1.1913457708    2.7078740415
C        0.8429070802   -0.6101829590    1.9280107038
C        0.9629563379   -0.5252968816    0.5366045658
H        0.1652666889   -0.0772622968   -0.0495697513
H       -0.0614263515   -0.2288664922    2.3953416928
C        1.7335388424   -1.2860344471    4.1719997394
O        2.5470548902   -1.8862473052    4.8167177345
O        0.6300298214   -0.7166576198    4.7707461311
H        0.8013009899    0.1859379278    5.0515046476
H        3.8016436552   -2.1543834127    2.6287681569
H        4.0068252871   -1.9987567420    0.1647048238
15   

H        2.1961081109   -0.8971988502   -1.1598407235
C        2.1040439400   -0.9792973947   -0.0801960118
C        3.1227956489   -1.5758729541    0.6684089135
C        3.0027359599   -1.6868114476    2.0594084168
C        1.8619983488   -1.1980383004    2.7233552663
C        0.8401419623   -0.6051428290    1.9526574562
C        0.9623506740   -0.4955551225    0.5631019219
H        0.1643549786   -0.0402608051   -0.0171146977
H       -0.0679716839   -0.2380829183    2.4240024263
C        1.7266404034   -1.3255009760    4.1840133022
O        2.5229630600   -1.9593881536    4.8163580767
O        0.6772146513   -0.6878127990    4.8066287795
H        0.8182109921    0.2612737249    4.8588856084
H        3.7989469952   -2.1598226129    2.6303685832
H        4.0085858812   -1.9589687487    0.1697927239
15   

H        2.1842821130   -0.8585522155   -1.1414682742
C        2.0943876229   -0.9525213802   -0.0625695328
C        3.1143764658   -1.5582390829    0.6768459502
C        2.9970326935   -1.6853292804    2.0665794833
C        1.8585768749   -1.2025936885    2.7386671943
C        0.8345036128   -0.6014744767    1.9771905085
C        0.9539579375   -0.4762151795    0.5886197478
H        0.1545063632   -0.0157527169    0.0144364376
H       -0.0748383052   -0.2435559117    2.4530391388
C        1.7265273604   -1.3498802070    4.1973750642
O        2.5033872645   -2.0224477502    4.8141403649
O        0.7378355067   -0.6540096401    4.8415042669
H        0.8071218129    0.2927487769    4.6857321843
H        3.7938313555   -2.1659310385    2.6304983247
H        3.9988744337   -1.9363362148    0.1720603742
15   

H        2.1519629299   -0.8483882619   -1.1305811286
C        2.0684146208   -0.9471910599   -0.0515707614
C        3.0908427501   -1.5603942978    0.6780549502
C        2.9819738054   -1.6937170677    2.0677324332
C        1.8505819330   -1.2086887029    2.7499150059
C        0.8228077164   -0.6013023819    1.9982675731
C        0.9337273903   -0.4703445192    0.6093644494
H        0.1321339469   -0.0054388433    0.0417261407
H       -0.0838779076   -0.2448893327    2.4799887479
C        1.7320711998   -1.3605416134    4.2090352845
O        2.4827789562   -2.0780719343    4.8083070248
O        0.8064597221   -0.6146808271    4.8726823357
H        0.7703691066    0.2911116053    4.5467541279
H        3.7807910383   -2.1795718768    2.6243954412
H        3.9708312820   -1.9392214959    0.1658963517
15   

H        2.1034446966   -0.8647375763   -1.1265592993
C        2.0299562652   -0.9618904112   -0.0466414110
C        3.0549710822   -1.5824932398    0.6727646744
C        2.9596132594   -1.7129694690    2.0635166884
C        1.8403911000   -1.2166672790    2.7574641785
C        0.8086425361   -0.6030560832    2.0161144600
C        0.9059184420   -0.4755945376    0.6256774365
H        0.1023015399   -0.0056231543    0.0650784645
H       -0.0911784679   -0.2394283732    2.5047621158
C        1.7446223341   -1.3600076061    4.2189671693
O        2.4629092781   -2.1234719283    4.8019672369
O        0.8796570551   -0.5710231832    4.8998162704
H        0.7137027303    0.2641688277    4.4462888539
H        3.7609851400   -2.2031451031    2.6127940829
H        3.9269264428   -1.9684399310    0.1521715080
15   

H        2.0483838866   -0.9004167564   -1.1277961114
C        1.9860197846   -0.9912986597   -0.0466176067
C        3.0102277210   -1.6234177046    0.6635162627
C        2.9298557740   -1.7446079185    2.0558629183
C        1.8278817029   -1.2264091051    2.7613002441
C        0.7957503215   -0.6018695514    2.0292907112
C        0.8776559019   -0.4847318670    0.6367623637
H        0.0748410168   -0.0057049485    0.0827090445
H       -0.0926426267   -0.2202689953    2.5243606844
C        1.7595309640   -1.3521489483    4.2260582469
O        2.4386431647   -2.1607922615    4.7957947108
O        0.9540667574   -0.5217591351    4.9195930511
H        0.6435555903    0.2202057428    4.3848023805
H        3.7315613434   -2.2417005962    2.5984870397
H        3.8706080683   -2.0242154829    0.1348907124
15   

H        1.9917978627   -0.9392951207   -1.1330649492
C        1.9428091648   -1.0198700351   -0.0503764416
C        2.9616871816   -1.6704033767    0.6501079374
C        2.8991546949   -1.7770411895    2.0443380386
C        1.8214304646   -1.2257578637    2.7626953287
C        0.7944336199   -0.5812703461    2.0399380039
C        0.8580601210   -0.4798273594    0.6450006259
H        0.0601731578    0.0153263191    0.0980749130
H       -0.0754950628   -0.1674582885    2.5406468074
C        1.7842871622   -1.3319355372    4.2312349782
O        2.4463606446   -2.1623385220    4.7902618717
O        1.0071228433   -0.4880721497    4.9361936299
H        0.5258446077    0.1308077647    4.3713537733
H        3.6984622298   -2.2865958138    2.5789397818
H        3.8049751141   -2.0954982652    0.1129563469
