15   

H        2.1271734650   -1.0610760734   -1.2209000621
C        1.9701879874   -1.0475306065   -0.1458256040
C        3.0517399952   -1.2090819606    0.7250415151
C        2.8496035073   -1.1921327329    2.1114852719
C        1.5750217493   -1.0076583079    2.6408529889
C        0.4892273828   -0.8565667575    1.7591057659
C        0.6850900253   -0.8725847784    0.3736022037
H       -0.1620525785   -0.7512160031   -0.2955417247
H       -0.5139387115   -0.7261739782    2.1592543759
C        1.3363139185   -1.0078945632    4.1002347776
O        0.2532049108   -1.1124393342    4.6203504509
O        2.4619677778   -0.8943830917    4.8444945234
H        2.1477966346   -0.9106833210    5.7603534742
H        3.7100954776   -1.3264421711    2.7621009765
H        4.0522035425   -1.3500578451    0.3259820505
15   

H        2.1246472750   -1.0335676613   -1.2187905050
C        1.9683865317   -1.0309925834   -0.1435297962
C        3.0460703645   -1.2339596507    0.7240858383
C        2.8439185366   -1.2315988433    2.1105081007
C        1.5758451323   -1.0141948099    2.6412102956
C        0.4920431742   -0.8312813791    1.7648197025
C        0.6874089147   -0.8324312109    0.3789792093
H       -0.1568539666   -0.6835923721   -0.2882414676
H       -0.5072725656   -0.6894836022    2.1703958425
C        1.3412519635   -1.0533571554    4.1018528964
O        0.3073808204   -1.3862309155    4.6242305881
O        2.4261717237   -0.7149024667    4.8376101220
H        2.1290431759   -0.7916060770    5.7560133071
H        3.6941522802   -1.4007107490    2.7666543081
H        4.0421658645   -1.3970849511    0.3225687249
15   

H        2.1177431283   -1.0081095943   -1.2164901146
C        1.9639218768   -1.0165900302   -0.1409080560
C        3.0381700434   -1.2616044088    0.7207711815
C        2.8382667866   -1.2736982318    2.1073376471
C        1.5785392440   -1.0245961847    2.6418248852
C        0.4961126204   -0.8062936942    1.7737735752
C        0.6889138747   -0.7926177845    0.3874299085
H       -0.1526154726   -0.6144555938   -0.2760297387
H       -0.4981077590   -0.6504707140    2.1861041020
C        1.3535862452   -1.0994281784    4.1052591957
O        0.4186322885   -1.6454844608    4.6319319426
O        2.3541347914   -0.5472873725    4.8298364587
H        2.0881459653   -0.6791025177    5.7514193126
H        3.6787827122   -1.4750823622    2.7669419980
H        4.0284889295   -1.4467074680    0.3145410682
15   

H        2.1067587286   -0.9837344835   -1.2155328145
C        1.9581488996   -1.0062315498   -0.1394204147
C        3.0296469413   -1.2973336551    0.7117965645
C        2.8360211088   -1.3272371152    2.0988945858
C        1.5870224546   -1.0499659896    2.6422061447
C        0.5058384049   -0.7862553435    1.7866920368
C        0.6923813651   -0.7543645540    0.3996199204
H       -0.1466354030   -0.5407649698   -0.2565032280
H       -0.4808957398   -0.6098540677    2.2079199471
C        1.3771912808   -1.1498826846    4.1105338262
O        0.5893811345   -1.8830960933    4.6473983084
O        2.2370593609   -0.3838130069    4.8190275810
H        2.0116152288   -0.5557704902    5.7446681762
H        3.6699106912   -1.5622609509    2.7556355270
H        4.0120815477   -1.5040916289    0.2969651789
15   

H        2.0896327768   -0.9507973575   -1.2157594882
C        1.9514566468   -0.9933204002   -0.1388611566
C        3.0217368280   -1.3390518211    0.6934669597
C        2.8415329041   -1.3943200049    2.0815640886
C        1.6068408550   -1.0943136274    2.6431597313
C        0.5275817341   -0.7671178055    1.8080125144
C        0.7008671226   -0.7096806739    0.4199554674
H       -0.1361631603   -0.4497556764   -0.2218173499
H       -0.4463829743   -0.5603793840    2.2442917096
C        1.4183718898   -1.2028539988    4.1181781231
O        0.8236936331   -2.0837055336    4.6786978889
O        2.0538784812   -0.2230846855    4.7977099570
H        1.8716496872   -0.4128125085    5.7292537925
H        3.6732219929   -1.6688498870    2.7254210987
H        3.9926307490   -1.5674593218    0.2631027846
15   

H        2.0780868647   -0.9098247803   -1.2148586044
C        1.9525835177   -0.9734706528   -0.1374505042
C        3.0178275744   -1.3854871704    0.6707002861
C        2.8537545594   -1.4680159714    2.0594546257
C        1.6377601395   -1.1415041076    2.6452017903
C        0.5679591414   -0.7298469017    1.8353318092
C        0.7247766845   -0.6452632595    0.4467129295
H       -0.1065118808   -0.3263710157   -0.1756232387
H       -0.3858865445   -0.4777537062    2.2914383501
C        1.4730089987   -1.2405544486    4.1258747246
O        1.1012532053   -2.2147593928    4.7218263265
O        1.7928662156   -0.0917310150    4.7602209477
H        1.6470276155   -0.2803550733    5.6983165517
H        3.6824125387   -1.7907054577    2.6845548215
H        3.9726394228   -1.6427916893    0.2210765885
15   

H        2.0619301642   -0.8790491632   -1.2142883910
C        1.9514689946   -0.9557135786   -0.1360818783
C        3.0114372955   -1.4250708674    0.6471003958
C        2.8664447572   -1.5247666222    2.0368281587
C        1.6710777304   -1.1693990617    2.6487218174
C        0.6126024709   -0.6836218045    1.8642054675
C        0.7500735464   -0.5820555875    0.4747114361
H       -0.0749027821   -0.2118184058   -0.1272486631
H       -0.3175966358   -0.3865707255    2.3416221763
C        1.5383119488   -1.2544280516    4.1318157707
O        1.4097146879   -2.2666544531    4.7662480239
O        1.5122974378   -0.0369474731    4.7172102803
H        1.4075159757   -0.2213767335    5.6616553597
H        3.6920747138   -1.8895830236    2.6426976675
H        3.9478265953   -1.7126184175    0.1774794512
15   

H        2.0487282417   -0.8846209582   -1.2172488899
C        1.9501732817   -0.9588595139   -0.1377204812
C        3.0022850054   -1.4686811095    0.6303329510
C        2.8726607065   -1.5653425127    2.0217252364
C        1.6979208442   -1.1710126480    2.6518016138
C        0.6503151912   -0.6382454789    1.8810806342
C        0.7728984992   -0.5398083093    0.4900044751
H       -0.0447276504   -0.1354386153   -0.0998981703
H       -0.2602934048   -0.3018336979    2.3702924201
C        1.5964290045   -1.2427548451    4.1339544843
O        1.7085418184   -2.2410864406    4.7950790157
O        1.2701387062   -0.0543680249    4.6902013110
H        1.2142213235   -0.2364166556    5.6393678848
H        3.6927049506   -1.9612306130    2.6159929156
H        3.9210358568   -1.7898440862    0.1478198032
15   

H        2.0333481870   -0.9131401169   -1.2227800490
C        1.9445723060   -0.9746812813   -0.1416054271
C        2.9880041398   -1.5117233219    0.6193108907
C        2.8713850995   -1.5919213787    2.0127836059
C        1.7174240984   -1.1528007744    2.6543384806
C        0.6776824506   -0.5944719898    1.8881686079
C        0.7885129803   -0.5127329379    0.4950169481
H       -0.0224196508   -0.0880496565   -0.0898373187
H       -0.2191299168   -0.2253045611    2.3794631315
C        1.6441545613   -1.2154775829    4.1344176728
O        1.9849076384   -2.1537229375    4.8074671940
O        1.0718719004   -0.1194502312    4.6837192252
H        1.0708236875   -0.2971073232    5.6354755661
H        3.6854929608   -2.0098006938    2.6006347176
H        3.8902879577   -1.8671374140    0.1297716731
15   

H        2.0177215324   -0.9530386742   -1.2296521234
C        1.9381291665   -0.9963333699   -0.1468788054
C        2.9725888740   -1.5530641049    0.6115626653
C        2.8683765349   -1.6096800419    2.0070876944
C        1.7361895746   -1.1234446828    2.6558132027
C        0.7023970591   -0.5507019075    1.8890972126
C        0.8022460899   -0.4928422968    0.4939286477
H       -0.0027080472   -0.0551393153   -0.0896011868
H       -0.1835730624   -0.1515386315    2.3766151329
C        1.6838699788   -1.1792633719    4.1339537702
O        2.2303402313   -2.0124054923    4.8120087637
O        0.9059708597   -0.2185096836    4.6851732611
H        0.9568784871   -0.3830017056    5.6380266714
H        3.6777040674   -2.0441232234    2.5899185088
H        3.8587785366   -1.9425880107    0.1185777791
15   

H        1.9967624179   -0.9985488514   -1.2355066848
C        1.9271955915   -1.0218994534   -0.1514283026
C        2.9532646268   -1.5945606775    0.6058808614
C        2.8626774277   -1.6251127168    2.0031200482
C        1.7537231703   -1.0925346466    2.6572694761
C        0.7245635560   -0.5100196315    1.8889142334
C        0.8119452764   -0.4783032947    0.4920856208
H        0.0122840612   -0.0302803673   -0.0909041559
H       -0.1498627114   -0.0810754855    2.3718313082
C        1.7167859944   -1.1395533839    4.1348693982
O        2.4373567390   -1.8226228019    4.8195694351
O        0.7649304277   -0.3497080991    4.6851518501
H        0.8588034892   -0.4876053268    5.6390230143
H        3.6683853135   -2.0734524162    2.5805920324
H        3.8229864858   -2.0170558886    0.1107123047
15   

H        1.9716838130   -1.0475019020   -1.2388639969
C        1.9132133614   -1.0499015201   -0.1538816208
C        2.9316319775   -1.6363231880    0.6029275454
C        2.8559176633   -1.6392787990    2.0013721641
C        1.7711758701   -1.0614683951    2.6583320889
C        0.7462428358   -0.4710201794    1.8892632607
C        0.8193502577   -0.4666599375    0.4912754675
H        0.0247347037   -0.0093774964   -0.0914311760
H       -0.1134980014   -0.0118416571    2.3706635317
C        1.7452535820   -1.0947464362    4.1362315885
O        2.6010901807   -1.5895811598    4.8276185173
O        0.6531705595   -0.5093032097    4.6816360793
H        0.7779856664   -0.6089903627    5.6367401885
H        3.6566943184   -2.0997823845    2.5761518016
H        3.7841533915   -2.0910886624    0.1064278061
15   

H        1.9428083628   -1.0963257084   -1.2386207607
C        1.8962409070   -1.0779957705   -0.1532147430
C        2.9074102694   -1.6776606818    0.6032335762
C        2.8472829559   -1.6530115717    2.0022310415
C        1.7877701653   -1.0308317694    2.6592356365
C        0.7669194657   -0.4332575095    1.8913605161
C        0.8243409997   -0.4558362519    0.4928024458
H        0.0346412750    0.0102408542   -0.0896116336
H       -0.0752431945    0.0541579445    2.3761403622
C        1.7680236527   -1.0466950957    4.1378279895
O        2.7114770644   -1.3258307833    4.8353945750
O        0.5776518003   -0.6891152112    4.6743416258
H        0.7186243922   -0.7416526466    5.6309316875
H        3.6406252486   -2.1237622572    2.5789886753
H        3.7419411654   -2.1639322868    0.1060330861
15   

H        1.9153641813   -1.1385418577   -1.2355605323
C        1.8803414990   -1.1010625941   -0.1502144346
C        2.8824905601   -1.7163503930    0.6063618056
C        2.8371716160   -1.6662333475    2.0052864486
C        1.8045831785   -0.9994947031    2.6597614547
C        0.7894774097   -0.3928856392    1.8941242031
C        0.8314072765   -0.4399932644    0.4956122614
H        0.0476219907    0.0360744084   -0.0866954994
H       -0.0337939646    0.1199072265    2.3852614775
C        1.7840533419   -0.9976994261    4.1397371598
O        2.7616547916   -1.0494982360    4.8426783265
O        0.5419986091   -0.8781406665    4.6641638648
H        0.6825561376   -0.8801596369    5.6221922218
H        3.6205535795   -2.1476980965    2.5866194701
H        3.6978778287   -2.2341902329    0.1092897879
15   

H        1.8897886419   -1.1733116326   -1.2310668042
C        1.8653335915   -1.1182843314   -0.1461792598
C        2.8555596167   -1.7517523689    0.6116652853
C        2.8236111673   -1.6785019759    2.0100256110
C        1.8194261163   -0.9679417384    2.6602269800
C        0.8133161000   -0.3486614412    1.8959988308
C        0.8408645730   -0.4178540597    0.4980397093
H        0.0649310417    0.0702590239   -0.0847938046
H        0.0095147109    0.1890704873    2.3926627256
C        1.7934632355   -0.9448832003    4.1430370010
O        2.7502839752   -0.7666230362    4.8516483970
O        0.5468176285   -1.0710113281    4.6534114136
H        0.6708118318   -1.0220530631    5.6123857625
H        3.5954065245   -2.1730652007    2.5954338428
H        3.6506069391   -2.3015120028    0.1159355067
15   

H        1.8737394464   -1.2017561676   -1.2273502629
C        1.8548441130   -1.1316265408   -0.1432235029
C        2.8264986809   -1.7872614218    0.6201856200
C        2.8015836751   -1.6941567534    2.0176222523
C        1.8244835839   -0.9416422295    2.6591073548
C        0.8359084608   -0.3018934521    1.8917938075
C        0.8555569691   -0.3900062849    0.4947757347
H        0.0933599054    0.1148181212   -0.0919273048
H        0.0524912510    0.2650287989    2.3883476467
C        1.7910699962   -0.8900048866    4.1451899715
O        2.6770102737   -0.4859195492    4.8509845332
O        0.5974143354   -1.2735537353    4.6513673926
H        0.6959136742   -1.1757503392    5.6094477775
H        3.5577836058   -2.2057505679    2.6082045568
H        3.6011896072   -2.3695059141    0.1293566829
15   

H        1.8759939773   -1.2160238777   -1.2250215738
C        1.8528322864   -1.1344745639   -0.1417756967
C        2.7940654947   -1.8190167340    0.6345525908
C        2.7635605273   -1.7112254378    2.0308891714
C        1.8088804705   -0.9196584023    2.6566764989
C        0.8545995036   -0.2450487151    1.8781747516
C        0.8795038040   -0.3474883968    0.4821828035
H        0.1425630778    0.1822966951   -0.1146954086
H        0.0943201756    0.3599498345    2.3654000999
C        1.7699864762   -0.8345619914    4.1451889787
O        2.5399579867   -0.2183024690    4.8314923067
O        0.7111671114   -1.4888440013    4.6709637041
H        0.7857339970   -1.3482377790    5.6257618442
H        3.4961622647   -2.2446378566    2.6313886142
H        3.5494040307   -2.4346844986    0.1544804651
15   

H        1.9106466059   -1.2132795502   -1.2245241043
C        1.8684755072   -1.1259016630   -0.1423056391
C        2.7633789395   -1.8466281705    0.6560121853
C        2.7082077333   -1.7317931572    2.0510529156
C        1.7676188039   -0.9061614372    2.6526979286
C        0.8706339848   -0.1813077268    1.8528038282
C        0.9201931944   -0.2911093001    0.4579934369
H        0.2238369234    0.2723221612   -0.1565536981
H        0.1363160902    0.4686379184    2.3215827036
C        1.7235761227   -0.7864501195    4.1403386036
O        2.3327034541    0.0170083868    4.7929140153
O        0.9060191035   -1.6989713889    4.7090252588
H        0.9623960855   -1.5211175821    5.6587941528
H        3.4062956543   -2.2911159667    2.6686159147
H        3.5024428599   -2.4949347136    0.1939343800
15   

H        1.9514647553   -1.2011995797   -1.2237352088
C        1.8846901282   -1.1143215168   -0.1427152178
C        2.7255967719   -1.8757491539    0.6763720544
C        2.6387926198   -1.7617487095    2.0698606993
C        1.7112838138   -0.9050314319    2.6491887415
C        0.8813310271   -0.1260150031    1.8284329975
C        0.9626091709   -0.2353228668    0.4350648192
H        0.3135596602    0.3652817608   -0.1958566223
H        0.1751525209    0.5660347295    2.2801703631
C        1.6627618949   -0.7599451383    4.1322855712
O        2.0749866191    0.1840223909    4.7509295601
O        1.1553140812   -1.8515623549    4.7458396612
H        1.1933852236   -1.6420389453    5.6901004461
H        3.2972820576   -2.3501701882    2.7037195719
H        3.4482950453   -2.5539637309    0.2316805744
15   

H        1.9884390142   -1.1981663249   -1.2223627764
C        1.8991899154   -1.1130834939   -0.1428237985
C        2.6940577914   -1.9055251662    0.6924247535
C        2.5786775198   -1.7936236373    2.0840394834
C        1.6632464380   -0.9118247996    2.6466060274
C        0.8864810888   -0.0964131224    1.8086645270
C        0.9964016046   -0.2033858386    0.4171694105
H        0.3858390049    0.4242434439   -0.2257662805
H        0.1995396091    0.6233052078    2.2471979468
C        1.5962172013   -0.7529411735    4.1231769655
O        1.7812278409    0.2768966197    4.7161987547
O        1.3883473982   -1.9219427979    4.7700344656
H        1.3884977866   -1.6850541619    5.7086977128
H        3.2045983894   -2.4055511469    2.7287754709
H        3.4041944108   -2.6057712560    0.2618750048
15   

H        2.0149316369   -1.1944359305   -1.2224247762
C        1.9110674437   -1.1123789007   -0.1439589521
C        2.6681612635   -1.9321750829    0.6994125412
C        2.5343907127   -1.8244161650    2.0897965145
C        1.6372851376   -0.9181310888    2.6452160037
C        0.8985796688   -0.0768995208    1.7970060960
C        1.0272174646   -0.1795074852    0.4069585989
H        0.4454683396    0.4694568493   -0.2415052478
H        0.2252789777    0.6605291155    2.2278617671
C        1.5411137294   -0.7595713251    4.1160844188
O        1.4896788121    0.2955801061    4.6937603843
O        1.5887128758   -1.9344688762    4.7856508087
H        1.5334055368   -1.6844650062    5.7193956360
H        3.1353330829   -2.4599816641    2.7355714390
H        3.3639673053   -2.6510263425    0.2761816765
15   

H        2.0401965862   -1.1866167794   -1.2236655172
C        1.9256940124   -1.1083638056   -0.1459942891
C        2.6489175833   -1.9537232985    0.7011597331
C        2.5017324774   -1.8517468180    2.0907549812
C        1.6270710150   -0.9213588956    2.6441673895
C        0.9177713332   -0.0597307268    1.7893952625
C        1.0602963044   -0.1566433535    0.4005044948
H        0.5019776231    0.5104154523   -0.2502097627
H        0.2537897104    0.6897960726    2.2143288392
C        1.4956788248   -0.7734899047    4.1107672385
O        1.2113706235    0.2520767369    4.6764130352
O        1.7686313948   -1.9065711895    4.7996539082
H        1.6502074165   -1.6594067295    5.7283727667
H        3.0806725639   -2.5125272419    2.7312405076
H        3.3291005413   -2.6893796408    0.2814062392
15   

H        2.0648546775   -1.1740151932   -1.2244974918
C        1.9406967319   -1.1009767402   -0.1475280401
C        2.6308866887   -1.9717980067    0.7007474134
C        2.4713770199   -1.8775965807    2.0896518253
C        1.6211151905   -0.9241232014    2.6435138155
C        0.9377966815   -0.0436201292    1.7849997318
C        1.0931463656   -0.1330593543    0.3971575273
H        0.5565642661    0.5511417550   -0.2540590707
H        0.2815477206    0.7154938435    2.2051743099
C        1.4546560578   -0.7934231178    4.1070663019
O        0.9511230189    0.1524037904    4.6606374231
O        1.9392660178   -1.8416818898    4.8143220926
H        1.7607562364   -1.6121215231    5.7380120385
H        3.0265197918   -2.5652936814    2.7226411248
H        3.2946106097   -2.7230502621    0.2822494175
15   

H        2.1248479548   -1.0886096666   -1.2217068694
C        1.9689205426   -1.0630878921   -0.1466950852
C        3.0551203945   -1.1833803407    0.7247592564
C        2.8547364967   -1.1505359610    2.1112145931
C        1.5758198306   -0.9981885517    2.6410089043
C        0.4868535527   -0.8776673104    1.7576335647
C        0.6811191737   -0.9097913070    0.3722462995
H       -0.1692853133   -0.8155214665   -0.2971323757
H       -0.5184873183   -0.7580303269    2.1557490904
C        1.3386134267   -0.9604966406    4.0999134626
O        0.2563915372   -0.8311031359    4.6169866066
O        2.4596394779   -1.0856136685    4.8494203464
H        2.1436198245   -1.0425286730    5.7637993716
H        3.7224386991   -1.2469562492    2.7588657586
H        4.0585607864   -1.3027877203    0.3261256746
