15   

H        1.8844837829   -1.1974111576   -1.1372589572
C        1.8989260317   -1.1491073251   -0.0516467270
C        2.9606302804   -1.7132786161    0.6606461319
C        2.9827075554   -1.6488137580    2.0589066803
C        1.9377003090   -1.0273810963    2.7676382579
C        0.8787644925   -0.4514122107    2.0340868575
C        0.8609360451   -0.5150089249    0.6358012008
H        0.0425690153   -0.0641620268    0.0808542975
H        0.0688491947    0.0724083285    2.5336911465
C        1.9680897212   -0.9741908872    4.2380961931
O        2.9986689886   -1.1458832446    4.8281131912
O        0.8177008376   -0.7689023661    4.9117254249
H        0.0392105000   -0.8750360873    4.3499263529
H        3.8160623048   -2.0885544040    2.6033531165
H        3.7727309228   -2.2015685532    0.1292294673
15   

H        1.8836722019   -1.2629963148   -1.1392468866
C        1.8975130519   -1.2018917599   -0.0542876566
C        2.9496614055   -1.7733264226    0.6666800284
C        2.9716342986   -1.6911765642    2.0642052418
C        1.9362440927   -1.0429524388    2.7629972389
C        0.8870039053   -0.4610351841    2.0206423869
C        0.8685941284   -0.5432185038    0.6235270184
H        0.0576316147   -0.0865551434    0.0625075965
H        0.0863574038    0.0823218079    2.5150184521
C        1.9669692172   -0.9570638609    4.2318026208
O        2.9798986341   -1.1865614993    4.8318058916
O        0.8201798788   -0.6788194542    4.8963881059
H        0.0378185925   -0.9607088413    4.4072844056
H        3.7987833036   -2.1346415006    2.6149666041
H        3.7551672230   -2.2796948151    0.1422473015
15   

H        1.8958470060   -1.3125070236   -1.1453677294
C        1.9057396772   -1.2419766249   -0.0609631565
C        2.9499781045   -1.8156593815    0.6699165627
C        2.9671773966   -1.7205216380    2.0668717162
C        1.9351404004   -1.0554393717    2.7547952351
C        0.8935596706   -0.4730680723    2.0023557321
C        0.8794326972   -0.5687193499    0.6062337839
H        0.0740212090   -0.1107283871    0.0383788922
H        0.0955355303    0.0802671997    2.4903535024
C        1.9609908645   -0.9456829309    4.2222495775
O        2.9519525252   -1.2278115673    4.8353835352
O        0.8187592339   -0.5923984266    4.8733959186
H        0.0425716754   -1.0278574338    4.5047499681
H        3.7891122183   -2.1644858170    2.6248650275
H        3.7535248369   -2.3330170525    0.1533413052
15   

H        1.9219861334   -1.3338996137   -1.1566115855
C        1.9244087025   -1.2605637245   -0.0723838943
C        2.9607639352   -1.8366228041    0.6679743882
C        2.9681706648   -1.7376292158    2.0649089468
C        1.9345629424   -1.0648766549    2.7430505553
C        0.9005091355   -0.4818429150    1.9810001674
C        0.8957459179   -0.5817015186    0.5852589529
H        0.0954023140   -0.1228537462    0.0110257131
H        0.0999448072    0.0732133239    2.4631307794
C        1.9493363838   -0.9460740059    4.2102333606
O        2.9157964688   -1.2750075839    4.8379326195
O        0.8161977537   -0.5119863117    4.8460295134
H        0.0570666120   -1.0666835643    4.6424416260
H        3.7843998036   -2.1830180098    2.6299482623
H        3.7659090201   -2.3585313860    0.1586067557
15   

H        1.9614650591   -1.3224292519   -1.1733844106
C        1.9526741288   -1.2536165564   -0.0889323702
C        2.9803824558   -1.8339627956    0.6601874324
C        2.9726499965   -1.7413368976    2.0576715819
C        1.9329503269   -1.0694562594    2.7274538620
C        0.9072914373   -0.4834492753    1.9565384215
C        0.9172733232   -0.5772440381    0.5605040286
H        0.1222460131   -0.1165679991   -0.0195395315
H        0.0997831764    0.0659355209    2.4336926131
C        1.9291472176   -0.9585095122    4.1957072780
O        2.8728462897   -1.3253088097    4.8365547622
O        0.8133990387   -0.4410092316    4.8144934309
H        0.0849154923   -1.0676539482    4.8165609711
H        3.7819506532   -2.1906282872    2.6293854573
H        3.7902694973   -2.3546153363    0.1571876862
15   

H        2.0124675553   -1.2864558099   -1.1912260352
C        1.9887864783   -1.2287774948   -0.1063859305
C        3.0061196931   -1.8165350393    0.6511121977
C        2.9781723035   -1.7393996903    2.0493697036
C        1.9290788173   -1.0744419603    2.7116035794
C        0.9137000084   -0.4819053867    1.9321022709
C        0.9434634527   -0.5606407507    0.5354837163
H        0.1549021330   -0.0960626999   -0.0501632803
H        0.0962683520    0.0569014980    2.4044494919
C        1.8997871848   -0.9847667810    4.1816034081
O        2.8238412094   -1.3846559978    4.8327016725
O        0.8135931305   -0.3839986397    4.7813436128
H        0.1343853978   -1.0226276622    5.0130069205
H        3.7788259532   -2.1957541459    2.6274541261
H        3.8230987147   -2.3317359084    0.1541012408
15   

H        2.0645204581   -1.2497797419   -1.2060674826
C        2.0244739626   -1.2045344567   -0.1211522691
C        3.0313969077   -1.7988712694    0.6450825513
C        2.9814346125   -1.7388862134    2.0436502846
C        1.9210717687   -1.0834280160    2.6976861854
C        0.9160200110   -0.4850751930    1.9090873783
C        0.9674226762   -0.5470979703    0.5123207149
H        0.1854488989   -0.0791657127   -0.0793890528
H        0.0874567015    0.0417529588    2.3755845255
C        1.8644636305   -1.0161122555    4.1688072952
O        2.7727895320   -1.4447172497    4.8270557774
O        0.8119089140   -0.3497498152    4.7476210989
H        0.2118246188   -0.9482730340    5.2015791505
H        3.7735152958   -2.2016823586    2.6282177390
H        3.8568868819   -2.3066954826    0.1546816866
15   

H        2.1054637711   -1.2293137835   -1.2160851545
C        2.0505488448   -1.1936008723   -0.1314905723
C        3.0484531851   -1.7918661787    0.6434523435
C        2.9786947384   -1.7449669444    2.0417457793
C        1.9079337548   -1.0974929755    2.6870041767
C        0.9117511133   -0.4960064221    1.8893575559
C        0.9825270870   -0.5455172740    0.4929998578
H        0.2063031240   -0.0760360007   -0.1049738815
H        0.0733165361    0.0209182525    2.3493628701
C        1.8283876185   -1.0446254665    4.1582480503
O        2.7179557128   -1.5064188120    4.8231435473
O        0.8069598146   -0.3320784798    4.7179659736
H        0.3143662119   -0.8554760994    5.3592634566
H        3.7635669742   -2.2116498211    2.6327670451
H        3.8820124108   -2.2931002919    0.1600465200
15   

H        2.1395107358   -1.2160492767   -1.2221904146
C        2.0722391423   -1.1858920891   -0.1381392574
C        3.0670563686   -1.7782279006    0.6453620006
C        2.9811093307   -1.7386659007    2.0430524288
C        1.8969738857   -1.1044934429    2.6790795218
C        0.9035608957   -0.5098787523    1.8727678181
C        0.9907007715   -0.5516386152    0.4771425270
H        0.2161003224   -0.0875740676   -0.1271112237
H        0.0537561457   -0.0056928880    2.3261863090
C        1.7990665535   -1.0595178949    4.1496603314
O        2.6824184080   -1.5241133775    4.8236025509
O        0.7732467616   -0.3583028982    4.6950932323
H        0.4261062690   -0.8001900064    5.4800685747
H        3.7633097127   -2.2012039528    2.6407306701
H        3.9105168087   -2.2695174922    0.1690295017
15   

H        2.1597711279   -1.2033959366   -1.2262336901
C        2.0832737064   -1.1788239730   -0.1426622754
C        3.0755156214   -1.7681121608    0.6464388763
C        2.9774436406   -1.7359830658    2.0435512067
C        1.8837197019   -1.1121795052    2.6732774568
C        0.8926068750   -0.5213401966    1.8614183499
C        0.9918909969   -0.5555250448    0.4664158628
H        0.2186558303   -0.0946657095   -0.1420083974
H        0.0346214100   -0.0271827821    2.3105994373
C        1.7732893668   -1.0739759448    4.1431246634
O        2.6438080444   -1.5545251973    4.8245058725
O        0.7399032048   -0.3917489861    4.6808940055
H        0.5371981302   -0.7272174910    5.5654997440
H        3.7573438401   -2.1965552764    2.6456725866
H        3.9261459424   -2.2515673678    0.1748891866
15   

H        2.1789668559   -1.1891784971   -1.2286798616
C        2.0952160170   -1.1693738883   -0.1455524467
C        3.0879682771   -1.7519979013    0.6479201197
C        2.9803165130   -1.7262607355    2.0444847487
C        1.8762593428   -1.1158456533    2.6690379215
C        0.8843834412   -0.5322792174    1.8529577090
C        0.9934515599   -0.5596209353    0.4585602321
H        0.2193253755   -0.1046445241   -0.1531445923
H        0.0177768325   -0.0501302850    2.2987463288
C        1.7556163487   -1.0842057432    4.1380139996
O        2.6168335977   -1.5726145196    4.8267461092
O        0.6983563091   -0.4452919620    4.6712270085
H        0.6316778721   -0.6531536498    5.6154453424
H        3.7600926400   -2.1822252776    2.6502287690
H        3.9461101600   -2.2257390636    0.1801524222
15   

H        2.1947374321   -1.1718992582   -1.2287321969
C        2.1059673764   -1.1574189796   -0.1459220332
C        3.1015892993   -1.7322258830    0.6496946303
C        2.9872788682   -1.7136386423    2.0458614968
C        1.8733664033   -1.1187168597    2.6677320548
C        0.8783520624   -0.5435258865    1.8495567161
C        0.9943766137   -0.5631388440    0.4556082700
H        0.2175954526   -0.1149157802   -0.1577180305
H        0.0034217092   -0.0748250112    2.2934684274
C        1.7453979085   -1.0948666235    4.1361303246
O        2.6008502046   -1.5892391563    4.8282333557
O        0.6573499088   -0.5109972470    4.6661220628
H        0.6999389110   -0.5653211222    5.6333332705
H        3.7687698360   -2.1642752543    2.6533678551
H        3.9668078877   -2.1948618839    0.1838598726
15   

H        2.2009819649   -1.1492785834   -1.2274091902
C        2.1103881430   -1.1418748898   -0.1446768285
C        3.1112076204   -1.7098789914    0.6492615709
C        2.9944053759   -1.7007244136    2.0452979124
C        1.8725224715   -1.1226136667    2.6688219866
C        0.8719830595   -0.5547477012    1.8522414613
C        0.9908371976   -0.5643552207    0.4584089183
H        0.2096731063   -0.1221333323   -0.1537022989
H       -0.0099697476   -0.1004094761    2.2971438646
C        1.7418525834   -1.1091454935    4.1372193448
O        2.5956212908   -1.6110535645    4.8255198551
O        0.6233568342   -0.5811941972    4.6668987331
H        0.7380839982   -0.4603478616    5.6215896631
H        3.7795791297   -2.1469071417    2.6513535557
H        3.9821292470   -2.1604602681    0.1822317660
15   

H        2.2026976377   -1.1256017981   -1.2237546151
C        2.1119330965   -1.1268850641   -0.1410068134
C        3.1182428400   -1.6906778484    0.6489068488
C        3.0011357606   -1.6930446464    2.0449203126
C        1.8732984487   -1.1310635659    2.6726769240
C        0.8668928399   -0.5679395943    1.8599345644
C        0.9863269021   -0.5656082106    0.4660952702
H        0.2005684580   -0.1274450008   -0.1430522515
H       -0.0207104637   -0.1274575285    2.3074054572
C        1.7425057022   -1.1297618481    4.1413487381
O        2.5948292523   -1.6432847721    4.8216789977
O        0.5999696414   -0.6453359559    4.6728183693
H        0.7515957899   -0.3386902404    5.5778783972
H        3.7903770782   -2.1366877171    2.6475812421
H        3.9934774116   -2.1295435999    0.1787778300
15   

H        2.2024822444   -1.1019445252   -1.2185553788
C        2.1119021130   -1.1140239898   -0.1358498958
C        3.1223019283   -1.6781172206    0.6485532878
C        3.0053600471   -1.6947200359    2.0444542753
C        1.8737104997   -1.1466522378    2.6777359238
C        0.8627480353   -0.5838445725    1.8704087850
C        0.9821271472   -0.5671846796    0.4766447401
H        0.1928266071   -0.1297626954   -0.1284594115
H       -0.0290771892   -0.1558081558    2.3213993944
C        1.7438508674   -1.1595768666    4.1464720475
O        2.5897002815   -1.6921276373    4.8182492012
O        0.5891191364   -0.6919566598    4.6844649821
H        0.7563617458   -0.2017551547    5.4991357891
H        3.7976013176   -2.1390588855    2.6427141785
H        4.0004579113   -2.1065316976    0.1742256273
15   

H        2.1953604778   -1.0663992702   -1.2108955255
C        2.1066645827   -1.0919048743   -0.1282510903
C        3.1239636163   -1.6550203056    0.6478124833
C        3.0094439914   -1.6892381786    2.0435218746
C        1.8734309929   -1.1600175760    2.6850123406
C        0.8549389951   -0.5989630425    1.8860768198
C        0.9721563437   -0.5643119528    0.4924001077
H        0.1772347413   -0.1287170163   -0.1066538109
H       -0.0417702989   -0.1876473063    2.3427171959
C        1.7466811696   -1.1926938506    4.1535312613
O        2.5937540428   -1.7314971790    4.8159724646
O        0.5843044840   -0.7355723178    4.7051138892
H        0.7466948565   -0.0720224771    5.3842213722
H        3.8068011329   -2.1332938455    2.6352647404
H        4.0054381860   -2.0694194349    0.1671735732
15   

H        2.1905470618   -1.0213891558   -1.1987904069
C        2.1017204042   -1.0645473443   -0.1166910205
C        3.1207554244   -1.6369324409    0.6502436645
C        3.0057329548   -1.6948548687    2.0450558530
C        1.8682747998   -1.1791164073    2.6946407496
C        0.8474453178   -0.6093586677    1.9051304325
C        0.9649105733   -0.5516572253    0.5121772323
H        0.1680542916   -0.1106973195   -0.0803921512
H       -0.0525489333   -0.2119847536    2.3675035995
C        1.7415560525   -1.2388603941    4.1617148102
O        2.5707986420   -1.8107868799    4.8154003260
O        0.6010662935   -0.7318610651    4.7354519092
H        0.7746081666    0.0716806668    5.2340629708
H        3.8038326798   -2.1467419211    2.6299713185
H        4.0036888199   -2.0406520027    0.1631592014
15   

H        2.1933767698   -0.9585899946   -1.1807851017
C        2.1027724948   -1.0221958401   -0.0998083278
C        3.1220291801   -1.6064676307    0.6578007460
C        3.0042610764   -1.6921133293    2.0508730259
C        1.8645692911   -1.1913457099    2.7078768720
C        0.8429082512   -0.6101941918    1.9280131466
C        0.9629533321   -0.5253132495    0.5366063340
H        0.1652590456   -0.0772867364   -0.0495678465
H       -0.0614268072   -0.2288815701    2.3953440013
C        1.7335516212   -1.2860274488    4.1720040923
O        2.5470794022   -1.8862187993    4.8167186007
O        0.6300193536   -0.7166803774    4.7707449260
H        0.8012632659    0.1859191574    5.0515072455
H        3.8016588222   -2.1543684056    2.6287695009
H        4.0068319796   -1.9987523086    0.1647051284
15   

H        2.1960978541   -0.8972121182   -1.1598417307
C        2.1040382995   -0.9793067832   -0.0801963288
C        3.1227977439   -1.5758703769    0.6684074975
C        3.0027443621   -1.6868032689    2.0594079945
C        1.8620048799   -1.1980373163    2.7233572602
C        0.8401405187   -0.6051542391    1.9526601447
C        0.9623433963   -0.4955713272    0.5631037005
H        0.1643419807   -0.0402858229   -0.0171119712
H       -0.0679745979   -0.2380992700    2.4240059881
C        1.7266546409   -1.3254933139    4.1840171593
O        2.5229916889   -1.9593575847    4.8163591587
O        0.6772039887   -0.6878346228    4.8066287560
H        0.8181736138    0.2612559474    4.8588873728
H        3.7989619344   -2.1598047865    2.6303670149
H        4.0085892967   -1.9589610484    0.1697897256
15   

H        2.1842831913   -0.8585717092   -1.1414697119
C        2.0943906334   -0.9525367391   -0.0625704448
C        3.1143843146   -1.5582443250    0.6768466778
C        2.9970432712   -1.6853285501    2.0665810424
C        1.8585850071   -1.2025976278    2.7386679056
C        0.8345066973   -0.6014890121    1.9771893705
C        0.9539586359   -0.4762350750    0.5886179656
H        0.1545035487   -0.0157800390    0.0144335809
H       -0.0748370294   -0.2435736015    2.4530368306
C        1.7265393064   -1.3498761132    4.1973771368
O        2.5034087052   -2.0224237029    4.8141474954
O        0.7378277358   -0.6540267079    4.8415011394
H        0.8070926336    0.2927333846    4.6857291610
H        3.7938459980   -2.1659219175    2.6305012675
H        3.9988841300   -1.9363379478    0.1720617356
15   

H        2.1519451602   -0.8483878754   -1.1305822888
C        2.0684019292   -0.9471895320   -0.0515714216
C        3.0908364841   -1.5603861086    0.6780507341
C        2.9819742396   -1.6937072801    2.0677288296
C        1.8505824807   -1.2086845553    2.7499159091
C        0.8228017742   -0.6013048440    1.9982719029
C        0.9337150126   -0.4703481566    0.6093680693
H        0.1321168448   -0.0054473681    0.0417324441
H       -0.0838837374   -0.2448956949    2.4799960450
C        1.7320799397   -1.3605367496    4.2090372779
O        2.4827995999   -2.0780554326    4.8083043997
O        0.8064534336   -0.6146942322    4.8726871738
H        0.7703461006    0.2910990003    4.5467632775
H        3.7807967871   -2.1795568737    2.6243887651
H        3.9708248956   -1.9392093771    0.1658890075
15   

H        2.1034277497   -0.8647325812   -1.1265610980
C        2.0299444200   -0.9618847896   -0.0466428060
C        3.0549655669   -1.5824815695    0.6727593077
C        2.9596144145   -1.7129570086    2.0635117705
C        1.8403923932   -1.2166607306    2.7574640471
C        0.8086375126   -0.6030553731    2.0161181879
C        0.9059070373   -0.4755941748    0.6256805990
H        0.1022854954   -0.0056271893    0.0650846117
H       -0.0911833718   -0.2394317419    2.5047689492
C        1.7446312744   -1.3600023303    4.2189677666
O        2.4629322401   -2.1234549509    4.8019628397
O        0.8796504269   -0.5710367319    4.8998210819
H        0.7136785513    0.2641547569    4.4462994831
H        3.7609914815   -2.2031280731    2.6127856871
H        3.9269207075   -1.9684242905    0.1521628167
15   

H        2.0483715495   -0.9004104473   -1.1277967673
C        1.9860114120   -0.9912923611   -0.0466180333
C        3.0102238783   -1.6234078645    0.6635123300
C        2.9298570318   -1.7445982510    2.0558592065
C        1.8278834177   -1.2264035673    2.7613005376
C        0.7957476360   -0.6018672010    2.0292944607
C        0.8776482537   -0.4847291433    0.6367657815
H        0.0748300335   -0.0057047792    0.0827150997
H       -0.0926448928   -0.2202693716    2.5243671736
C        1.7595380070   -1.3521456080    4.2260588572
O        2.4386596347   -2.1607815522    4.7957903969
O        0.9540626887   -0.5217672158    4.9195987469
H        0.6435407285    0.2201966115    4.3848134531
H        3.7315662249   -2.2416883922    2.5984803011
H        3.8706037660   -2.0242029154    0.1348839519
15   

H        1.9917914440   -0.9392916715   -1.1330658537
C        1.9428055690   -1.0198662401   -0.0503771943
C        2.9616870407   -1.6703965048    0.6501049336
C        2.8991581387   -1.7770340535    2.0443351804
C        1.8214339108   -1.2257538624    2.7626950583
C        0.7944338268   -0.5812689974    2.0399399389
C        0.8580568288   -0.4798261565    0.6450023538
H        0.0601673510    0.0153253574    0.0980783580
H       -0.0754946630   -0.1674587576    2.5406504858
C        1.7842938436   -1.3319329438    4.2312348889
O        2.4463763271   -2.1623277464    4.7902588936
O        1.0071194014   -0.4880788124    4.9361972834
H        0.5258321485    0.1307977126    4.3713620098
H        3.6984684088   -2.2865864657    2.5789349365
H        3.8049748476   -2.0954893373    0.1129515157
