15   

H        1.8845501612   -1.1969430423   -1.1372784028
C        1.8989896735   -1.1487041220   -0.0516632480
C        2.9606941934   -1.7129156319    0.6605965850
C        2.9827614344   -1.6485462857    2.0588609900
C        1.9377439834   -1.0271728861    2.7676298684
C        0.8788115983   -0.4511549020    2.0341132301
C        0.8609934411   -0.5146555057    0.6358223161
H        0.0426239623   -0.0637821516    0.0809007637
H        0.0688826989    0.0726116904    2.5337519365
C        1.9680883683   -0.9741836753    4.2380957310
O        2.9986688411   -1.1458666493    4.8281181973
O        0.8176975165   -0.7689074310    4.9117198680
H        0.0392111191   -0.8750488027    4.3499162352
H        3.8161070249   -2.0883348023    2.6032830556
H        3.7727971904   -2.2011723881    0.1291527926
15   

H        1.8838576360   -1.2620475626   -1.1393029779
C        1.8976850317   -1.2010758632   -0.0543361020
C        2.9498304971   -1.7725908265    0.6665707874
C        2.9717722726   -1.6906361060    2.0641066854
C        1.9363535799   -1.0425348447    2.7629711082
C        0.8871239340   -0.4605201587    2.0206801306
C        0.8687459366   -0.5425067786    0.6235513434
H        0.0577803876   -0.0857913238    0.0625791928
H        0.0864424743    0.0827231683    2.5151241240
C        1.9669687079   -0.9570535557    4.2318023284
O        2.9799005709   -1.1865343014    4.8318113293
O        0.8201727735   -0.6788308861    4.8963827097
H        0.0378198781   -0.9607343381    4.4072733019
H        3.7988990837   -2.1341971556    2.6148244229
H        3.7553462403   -2.2788898610    0.1420859226
15   

H        1.8962135224   -1.3110817823   -1.1454714002
C        1.9060715314   -1.2407513698   -0.0610535357
C        2.9502956850   -1.8145567666    0.6697485705
C        2.9674283998   -1.7197135712    2.0667229434
C        1.9353380529   -1.0548149352    2.7547447204
C        0.8937839851   -0.4722951544    2.0023865446
C        0.8797244917   -0.5676496886    0.6062416941
H        0.0743151862   -0.1095798785    0.0384479691
H        0.0956979076    0.0808678089    2.4904776438
C        1.9609905227   -0.9456727612    4.2222483695
O        2.9519553600   -1.2277853219    4.8353878664
O        0.8187513595   -0.5924102168    4.8733903761
H        0.0425735843   -1.0278828458    4.5047395272
H        3.7893207097   -2.1638246674    2.6246624607
H        3.7538641673   -2.3318113865    0.1531034186
15   

H        1.9225825360   -1.3320183614   -1.1567541584
C        1.9249407471   -1.2589451532   -0.0725086150
C        2.9612628826   -1.8351690887    0.6677658090
C        2.9685564692   -1.7365641717    2.0647266820
C        1.9348661262   -1.0640505111    2.7429804069
C        0.9008632406   -0.4808170852    1.9810175253
C        0.8962142752   -0.5802843500    0.5852457976
H        0.0958836814   -0.1213311583    0.0110794361
H        0.1002071137    0.0740124423    2.4632556792
C        1.9493342915   -0.9460609383    4.2102323805
O        2.9158055587   -1.2749738308    4.8379288803
O        0.8161862423   -0.5120029357    4.8460307092
H        0.0570692655   -1.0667189309    4.6424410287
H        3.7847168764   -2.1821510505    2.6297095543
H        3.7664443132   -2.3569452215    0.1583193799
15   

H        1.9623587090   -1.3202250478   -1.1735337311
C        1.9534607844   -1.2517161658   -0.0890633708
C        2.9811052121   -1.8322585551    0.6599906366
C        2.9731972848   -1.7400858569    2.0575023677
C        1.9333809754   -1.0684795003    2.7273796092
C        0.9078094436   -0.4822336581    1.9565328778
C        0.9179679588   -0.5755724572    0.5604673894
H        0.1229741012   -0.1147717971   -0.0195223284
H        0.1001779630    0.0668875490    2.4337810717
C        1.9291469593   -0.9584922434    4.1957048625
O        2.8728577852   -1.3252648400    4.8365564315
O        0.8133844471   -0.4410311361    4.8144917730
H        0.0849205742   -1.0676986832    4.8165559905
H        3.7823953286   -2.1896154190    2.6291744995
H        3.7910472078   -2.3527623896    0.1569250658
15   

H        2.0135779964   -1.2842099336   -1.1913346819
C        1.9897552244   -1.2268378827   -0.1064814973
C        3.0069955412   -1.8148007415    0.6509811653
C        2.9788252036   -1.7381262155    2.0492587904
C        1.9295942909   -1.0734407166    2.7115496252
C        0.9143350714   -0.4806531101    1.9320852656
C        0.9443224370   -0.5589255104    0.5354444398
H        0.1558154398   -0.0942173747   -0.0501719999
H        0.0967632752    0.0578889693    2.4044913620
C        1.8997871122   -0.9847514010    4.1816005266
O        2.8238530391   -1.3846174627    4.8327035659
O        0.8135777641   -0.3840208727    4.7813433930
H        0.1343895329   -1.0226726858    5.0130015120
H        3.7793507627   -2.1947319324    2.6273221338
H        3.8240420485   -2.3298577192    0.1539318569
15   

H        2.0656463719   -1.2478163811   -1.2061178962
C        2.0254508750   -1.2028348921   -0.1211972846
C        3.0322737452   -1.7973495350    0.6450307614
C        2.9820828464   -1.7377645500    2.0436072825
C        1.9215829115   -1.0825430802    2.6976598203
C        0.9166564996   -0.4839710383    1.9090680273
C        0.9682888017   -0.5455918441    0.5122917895
H        0.1863761886   -0.0775478034   -0.0794101500
H        0.0879574826    0.0426253110    2.3755856500
C        1.8644648008   -1.0160943889    4.1688027370
O        2.7728100942   -1.4446641856    4.8270544181
O        0.8118864082   -0.3497796604    4.7476219735
H        0.2118289264   -0.9483311713    5.2015783603
H        3.7740356883   -2.2007825392    2.6281719913
H        3.8578333981   -2.3050509428    0.1546201114
15   

H        2.1064434063   -1.2277832828   -1.2160938413
C        2.0513954397   -1.1922741817   -0.1314993591
C        3.0492076426   -1.7906795223    0.6434541607
C        2.9792483331   -1.7440914474    2.0417482265
C        1.9083707687   -1.0967995647    2.6869972812
C        0.9123012904   -0.4951396588    1.8893396950
C        0.9832788497   -0.5443381009    0.4929814235
H        0.2071128647   -0.0747691348   -0.1049986482
H        0.0737534279    0.0216052674    2.3493405149
C        1.8283881370   -1.0446122746    4.1582436765
O        2.7179718929   -1.5063816611    4.8231421996
O        0.8069430448   -0.3321011349    4.7179690519
H        0.3143682362   -0.8555188143    5.3592646619
H        3.7640091702   -2.2109505977    2.6327778588
H        3.8828272964   -2.2918209274    0.1600566074
15   

H        2.1402171011   -1.2149184277   -1.2221844598
C        2.0728492599   -1.1849117015   -0.1381351335
C        3.0675984356   -1.7773532217    0.6453726587
C        2.9815060875   -1.7380211192    2.0430607947
C        1.8972877538   -1.1039808497    2.6790793746
C        0.9039581323   -0.5092356001    1.8727610355
C        0.9912437413   -0.5507648310    0.4771381391
H        0.2166863748   -0.0866338618   -0.1271197869
H        0.0540727977   -0.0051805854    2.3261740241
C        1.7990648920   -1.0595077510    4.1496555281
O        2.6824298442   -1.5240885205    4.8235997111
O        0.7732368745   -0.3583201056    4.6950982431
H        0.4261107457   -0.8002211738    5.4800723659
H        3.7636248290   -2.2006912074    2.6407434757
H        3.9111015320   -2.2685760822    0.1690469949
15   

H        2.1602148683   -1.2026488885   -1.2262249126
C        2.0836572624   -1.1781756540   -0.1426555312
C        3.0758580514   -1.7675310202    0.6464471968
C        2.9776949277   -1.7355526224    2.0435566188
C        1.8839172790   -1.1118383039    2.6732783687
C        0.8928553450   -0.5209155202    1.8614180212
C        0.9922310458   -0.5549488626    0.4664184064
H        0.2190217389   -0.0940475422   -0.1420068911
H        0.0348180052   -0.0268457135    2.3105964636
C        1.7732870249   -1.0739648113    4.1431193128
O        2.6438235577   -1.5544947917    4.8245015410
O        0.7398915337   -0.3917709077    4.6809002893
H        0.5372040601   -0.7272520831    5.5655056809
H        3.7575445257   -2.1962095971    2.6456786150
H        3.9265159933   -2.2509408051    0.1749008091
15   

H        2.1791631489   -1.1887961568   -1.2286758857
C        2.0953859282   -1.1690422293   -0.1455495911
C        3.0881204895   -1.7517008437    0.6479197077
C        2.9804281926   -1.7260407154    2.0444825423
C        1.8763466525   -1.1156710370    2.6690369367
C        0.8844930772   -0.5320618031    1.8529606791
C        0.9936019020   -0.5593260834    0.4585647997
H        0.2194866824   -0.1043279568   -0.1531377179
H        0.0178628210   -0.0499573371    2.2987514768
C        1.7556122556   -1.0841983111    4.1380086188
O        2.6168413565   -1.5725990153    4.8267423208
O        0.6983528723   -0.4453050078    4.6712337923
H        0.6316876847   -0.6531752277    5.6154516743
H        3.7601813320   -2.1820482454    2.6502238192
H        3.9462746044   -2.2254186763    0.1801507978
15   

H        2.1947093474   -1.1718836974   -1.2287384996
C        2.1059432011   -1.1574055718   -0.1459279883
C        3.1015682384   -1.7322141564    0.6496835139
C        2.9872629848   -1.7136297334    2.0458506838
C        1.8733528614   -1.1187092479    2.6677265105
C        0.8783352639   -0.5435165532    1.8495569685
C        0.9943546034   -0.5631266599    0.4556079113
H        0.2175712271   -0.1149024096   -0.1577146776
H        0.0034070767   -0.0748169254    2.2934743031
C        1.7453914501   -1.0948628721    4.1361247707
O        2.6008503096   -1.5892390423    4.8282279659
O        0.6573532767   -0.5109993448    4.6661296362
H        0.6999540803   -0.5653297355    5.6333404788
H        3.7687562384   -2.1642675758    2.6533532545
H        3.9667851717   -2.1948492520    0.1838447262
15   

H        2.2007634704   -1.1496480797   -1.2274291752
C        2.1101984264   -1.1421950411   -0.1446947508
C        3.1110378517   -1.7101654689    0.6492425870
C        2.9942791289   -1.7009355261    2.0452819827
C        1.8724214880   -1.1227802070    2.6688101083
C        0.8718576334   -0.5549562503    1.8522308045
C        0.9906680173   -0.5646394671    0.4583949839
H        0.2094913012   -0.1224386457   -0.1537153112
H       -0.0100703408   -0.1005746249    2.2971381627
C        1.7418442730   -1.1091455964    4.1372136933
O        2.5956126918   -1.6110677238    4.8255151724
O        0.6233657383   -0.5811850372    4.6669061589
H        0.7381070498   -0.4603452269    5.6215966941
H        3.7794770685   -2.1470757180    2.6513376298
H        3.9819463708   -2.1607693557    0.1822101297
15   

H        2.2023025377   -1.1263745697   -1.2237943101
C        2.1115894257   -1.1275542956   -0.1410420963
C        3.1179339898   -1.6912766299    0.6488775185
C        3.0009058006   -1.6934860057    2.0448978875
C        1.8731153934   -1.1314118319    2.6726558144
C        0.8666663663   -0.5683752777    1.8599067897
C        0.9860211246   -0.5662020654    0.4660605008
H        0.2002410014   -0.1280830141   -0.1430907939
H       -0.0208904875   -0.1278026521    2.3073807420
C        1.7424952170   -1.1297652323    4.1413428617
O        2.5948125588   -1.6433128635    4.8216728059
O        0.5999815756   -0.6453155250    4.6728259354
H        0.7516274357   -0.3386777537    5.5778857632
H        3.7901917764   -2.1370412213    2.6475649228
H        3.9931447893   -2.1301900970    0.1787488324
15   

H        2.2019021860   -1.1031434528   -1.2186238187
C        2.1113980969   -1.1150613139   -0.1359102165
C        3.1218510578   -1.6790407358    0.6485063937
C        3.0050262490   -1.6953981847    2.0444202371
C        1.8734443754   -1.1471898642    2.6777021739
C        0.8624159427   -0.5845221450    1.8703598897
C        0.9816775922   -0.5681083474    0.4765830334
H        0.1923438108   -0.1307581766   -0.1285296299
H       -0.0293415587   -0.1563479342    2.3213536642
C        1.7438414781   -1.1595802722    4.1464666813
O        2.5896860048   -1.6921495693    4.8182448066
O        0.5891282398   -0.6919400859    4.6844710685
H        0.7563898927   -0.2017431636    5.4991409894
H        3.7973356631   -2.1395977273    2.6426931408
H        3.9999732528   -2.1075269296    0.1741810805
15   

H        2.1945888178   -1.0680401095   -1.2110054500
C        2.1059943825   -1.0933249126   -0.1283475770
C        3.1233625470   -1.6562883671    0.6477357140
C        3.0089989700   -1.6901710485    2.0434663373
C        1.8730779267   -1.1607548472    2.6849596871
C        0.8544998723   -0.5998877423    1.8860019078
C        0.9715605141   -0.5655730894    0.4923039351
H        0.1765957584   -0.1300735438   -0.1067620042
H       -0.0421177637   -0.1883805394    2.3426498035
C        1.7466703787   -1.1927006338    4.1535260743
O        2.5937320746   -1.7315294789    4.8159687824
O        0.5843146081   -0.7355471359    4.7051185344
H        0.7467312763   -0.0720023406    5.3842247046
H        3.8064456252   -2.1340390806    2.6352290090
H        4.0047907617   -2.0707881375    0.1670987629
15   

H        2.1894951372   -1.0233842286   -1.1989664056
C        2.1008099722   -1.0662768189   -0.1168449154
C        3.1199382262   -1.6384877977    0.6500955385
C        3.0051291346   -1.6960054290    2.0449419455
C        1.8677990443   -1.1800208518    2.6945571957
C        0.8468549578   -0.6104803761    1.9050387486
C        0.9641055115   -0.5531861015    0.5120504192
H        0.1671900064   -0.1123337826   -0.0805191290
H       -0.0530151645   -0.2128657167    2.3674463973
C        1.7415377547   -1.2388741136    4.1617086621
O        2.5707483659   -1.8108536126    4.8153960276
O        0.6010843426   -0.7318112742    4.7354542568
H        0.7746778590    0.0717176422    5.2340679807
H        3.8033450455   -2.1476705447    2.6298699949
H        4.0028041886   -2.0423347055    0.1629944882
15   

H        2.1920719031   -0.9607157441   -1.1810338279
C        2.1016509470   -1.0240397723   -0.1000252163
C        3.1210330554   -1.6081218449    0.6575605089
C        3.0035355049   -1.6933351972    2.0506813853
C        1.8639989947   -1.1923099570    2.7077595497
C        0.8421880651   -0.6113951339    1.9279177345
C        0.9619613827   -0.5269483507    0.5364600353
H        0.1641849329   -0.0790386457   -0.0496911030
H       -0.0619994640   -0.2298264945    2.3953245045
C        1.7335388424   -1.2860344471    4.1719997394
O        2.5470548902   -1.8862473052    4.8167177345
O        0.6300298214   -0.7166576198    4.7707461311
H        0.8013009899    0.1859379278    5.0515046476
H        3.8010782289   -2.1553471492    2.6285721633
H        4.0057512243   -2.0005378703    0.1644173954
15   

H        2.1947131600   -0.8991315681   -1.1601231727
C        2.1028533698   -0.9809749773   -0.0804417255
C        3.1217469393   -1.5773764409    0.6681072640
C        3.0019829840   -1.6879211499    2.0591621875
C        1.8614106088   -1.1989158732    2.7232232585
C        0.8393884536   -0.6062375996    1.9525812206
C        0.9613003149   -0.4970450766    0.5629666561
H        0.1632095030   -0.0418571713   -0.0172019255
H       -0.0685720477   -0.2389432339    2.4240375473
C        1.7266404034   -1.3255009760    4.1840133022
O        2.5229630600   -1.9593881536    4.8163580767
O        0.6772146513   -0.6878127990    4.8066287795
H        0.8182109921    0.2612737249    4.8588856084
H        3.7983487416   -2.1607067774    2.6300935892
H        4.0074438251   -1.9605891433    0.1694146832
15   

H        2.1830107716   -0.8600671070   -1.1417206428
C        2.0933063180   -0.9538390179   -0.0627889460
C        3.1134247256   -1.5594266527    0.6765524306
C        2.9963522820   -1.6862100111    2.0663351250
C        1.8580492255   -1.2032881480    2.7385488496
C        0.8338261665   -0.6023331895    1.9771475469
C        0.9530079756   -0.4773822331    0.5885234203
H        0.1534683508   -0.0169976663    0.0144010131
H       -0.0753775050   -0.2442251874    2.4531167345
C        1.7265273604   -1.3498802070    4.1973750642
O        2.5033872645   -2.0224477502    4.8141403649
O        0.7378355067   -0.6540096401    4.8415042669
H        0.8071218129    0.2927487769    4.6857321843
H        3.7932879100   -2.1666370661    2.6302097203
H        3.9978337988   -1.9376173086    0.1716806157
15   

H        2.1509379797   -0.8494502124   -1.1307655255
C        2.0675450846   -0.9481169333   -0.0517306934
C        3.0900779510   -1.5612323531    0.6778201601
C        2.9814288513   -1.6943416184    2.0675336173
C        1.8501612312   -1.2091810956    2.7498293757
C        0.8222668639   -0.6019069684    1.9982587892
C        0.9329656911   -0.4711639274    0.6093157887
H        0.1313002684   -0.0063099574    0.0417374638
H       -0.0843085359   -0.2453585203    2.4800863475
C        1.7320711998   -1.3605416134    4.2090352845
O        2.4827789562   -2.0780719343    4.8083070248
O        0.8064597221   -0.6146808271    4.8726823357
H        0.7703691066    0.2911116053    4.5467541279
H        3.7803544906   -2.1800744295    2.6241480252
H        3.9699927165   -1.9401252682    0.1655828866
15   

H        2.1027269636   -0.8653923708   -1.1266682099
C        2.0293483845   -0.9624628533   -0.0467354491
C        3.0544372597   -1.5830117329    0.6726101271
C        2.9592339631   -1.7133574615    2.0633836210
C        1.8400987253   -1.2169748742    2.7574147875
C        0.8082656116   -0.6034332208    2.0161274840
C        0.9053863576   -0.4761030209    0.6256660521
H        0.1017180608   -0.0061633308    0.0651146825
H       -0.0914796229   -0.2397226056    2.5048524401
C        1.7446223341   -1.3600076061    4.2189671693
O        2.4629092781   -2.1234719283    4.8019672369
O        0.8796570551   -0.5710231832    4.8998162704
H        0.7137027303    0.2641688277    4.4462888539
H        3.7606814004   -2.2034566561    2.6126194314
H        3.9263404400   -1.9689974391    0.1519580529
15   

H        2.0480121705   -0.9007167185   -1.1278406838
C        1.9857052246   -0.9915617638   -0.0466557830
C        3.0099526151   -1.6236544109    0.6634438091
C        2.9296608666   -1.7447854820    2.0557994823
C        1.8277308603   -1.2265522354    2.7612809602
C        0.7955545438   -0.6020467490    2.0293068620
C        0.8773797041   -0.4849685126    0.6367679605
H        0.0745371745   -0.0059575124    0.0827411914
H       -0.0928006375   -0.2204103892    2.5244168188
C        1.7595309640   -1.3521489483    4.2260582469
O        2.4386431647   -2.1607922615    4.7957947108
O        0.9540667574   -0.5217591351    4.9195930511
H        0.6435555903    0.2202057428    4.3848023805
H        3.7314061918   -2.2418411305    2.5983990613
H        3.8703065009   -2.0244678637    0.1347868312
15   

H        1.9918048473   -0.9392893439   -1.1330642719
C        1.9428150877   -1.0198649966   -0.0503758684
C        2.9616924546   -1.6703987303    0.6501091096
C        2.8991584744   -1.7770377040    2.0443390711
C        1.8214333339   -1.2257551841    2.7626955977
C        0.7944372431   -0.5812671421    2.0399376524
C        0.8580652469   -0.4798229789    0.6450004455
H        0.0601787345    0.0153309229    0.0980742733
H       -0.0754922099   -0.1674558835    2.5406457825
C        1.7842871622   -1.3319355372    4.2312349782
O        2.4463606446   -2.1623385220    4.7902618717
O        1.0071228433   -0.4880721497    4.9361936299
H        0.5258446077    0.1308077647    4.3713537733
H        3.6984653295   -2.2865929128    2.5789412654
H        3.8049809431   -2.0954931883    0.1129580536
