15   

H        2.1271730129   -1.0610751979   -1.2209014080
C        1.9701895849   -1.0475287852   -0.1458266625
C        3.0517428507   -1.2090816794    0.7250384895
C        2.8496089340   -1.1921315220    2.1114825651
C        1.5750277870   -1.0076546219    2.6408534493
C        0.4892325541   -0.8565613107    1.7591072453
C        0.6850929529   -0.8725803252    0.3736033847
H       -0.1620506192   -0.7512104508   -0.2955391241
H       -0.5139330234   -0.7261667039    2.1592566147
C        1.3363210858   -1.0078906867    4.1002309048
O        0.2532050539   -1.1124340541    4.6203452440
O        2.4619738176   -0.8943854238    4.8444933775
H        2.1477988760   -0.9106652643    5.7603514258
H        3.7101017104   -1.3264424578    2.7620969255
H        4.0522053782   -1.3500597107    0.3259772258
15   

H        2.1246498155   -1.0335572389   -1.2187924086
C        1.9683910476   -1.0309814485   -0.1435314155
C        3.0460756156   -1.2339519622    0.7240823017
C        2.8439259868   -1.2315912278    2.1105048385
C        1.5758537613   -1.0141836917    2.6412106212
C        0.4920515689   -0.8312661768    1.7648206850
C        0.6874150982   -0.8324161726    0.3789798873
H       -0.1568485620   -0.6835750772   -0.2882393099
H       -0.5072636407   -0.6894663227    2.1703974693
C        1.3412581693   -1.0533494998    4.1018494937
O        0.3073782575   -1.3862224383    4.6242210238
O        2.4261774644   -0.7149077319    4.8376133537
H        2.1290271554   -0.7915562326    5.7560141235
H        3.6941598758   -1.4007068159    2.7666499535
H        4.0421698945   -1.3970805856    0.3225635115
15   

H        2.1177453567   -1.0080952729   -1.2164917798
C        1.9639258255   -1.0165754973   -0.1409094751
C        3.0381743961   -1.2615939405    0.7207679096
C        2.8382729610   -1.2736887314    2.1073345668
C        1.5785464729   -1.0245832249    2.6418253198
C        0.4961200047   -0.8062761771    1.7737745430
C        0.6889194530   -0.7925996216    0.3874306270
H       -0.1526104371   -0.6144349695   -0.2760276761
H       -0.4980999013   -0.6504517341    2.1861056780
C        1.3535898644   -1.0994205047    4.1052576715
O        0.4186272776   -1.6454773707    4.6319184925
O        2.3541386890   -0.5472936959    4.8298452281
H        2.0880906064   -0.6790153542    5.7514243309
H        3.6787885443   -1.4750773378    2.7669380638
H        4.0284920462   -1.4467002883    0.3145362815
15   

H        2.1067610143   -0.9837241441   -1.2155332933
C        1.9581517278   -1.0062206785   -0.1394208096
C        3.0296496349   -1.2973250297    0.7117955105
C        2.8360243652   -1.3272288295    2.0988935466
C        1.5870257975   -1.0499551465    2.6422064415
C        0.5058421980   -0.7862422799    1.7866923002
C        0.6923849015   -0.7543514681    0.3996201359
H       -0.1466318097   -0.5407509129   -0.2565027703
H       -0.4808919623   -0.6098406431    2.2079199839
C        1.3771931461   -1.1498765936    4.1105319093
O        0.5893773061   -1.8830917488    4.6473898020
O        2.2370628444   -0.3838145253    4.8190321135
H        2.0115224710   -0.5556679796    5.7446685675
H        3.6699132624   -1.5622555535    2.7556344480
H        4.0120835791   -1.5040852221    0.2969636656
15   

H        2.0896333388   -0.9507914376   -1.2157596801
C        1.9514578787   -0.9933130967   -0.1388612071
C        3.0217382412   -1.3390449277    0.6934664704
C        2.8415350846   -1.3943120820    2.0815637010
C        1.6068433651   -1.0943036303    2.6431602318
C        0.5275841368   -0.7671076019    1.8080131219
C        0.7008689460   -0.7096717407    0.4199559299
H       -0.1361615362   -0.4497470847   -0.2218167657
H       -0.4463805952   -0.5603690982    2.2442921799
C        1.4183744819   -1.2028470139    4.1181755102
O        0.8236908824   -2.0837035743    4.6786892923
O        2.0538828613   -0.2230834690    4.7977141451
H        1.8715628186   -0.4127543588    5.7292517325
H        3.6732239454   -1.6688430742    2.7254206317
H        3.9926316177   -1.5674540639    0.2631019295
15   

H        2.0780868547   -0.9098249051   -1.2148586173
C        1.9525835093   -0.9734707399   -0.1374505148
C        3.0178275711   -1.3854872242    0.6707002832
C        2.8537545594   -1.4680159714    2.0594546257
C        1.6377601395   -1.1415041076    2.6452017903
C        0.5679591308   -0.7298469522    1.8353317950
C        0.7247766749   -0.6452633402    0.4467129115
H       -0.1065118925   -0.3263711238   -0.1756232692
H       -0.3858865647   -0.4777537702    2.2914383205
C        1.4730089987   -1.2405544486    4.1258747246
O        1.1012532053   -2.2147593928    4.7218263265
O        1.7928668750   -0.0917312299    4.7602210017
H        1.6470277176   -0.2803551047    5.6983165548
H        3.6824125409   -1.7907054276    2.6845548347
H        3.9726394174   -1.6427917605    0.2210765901
15   

H        2.0619298820   -0.8790482034   -1.2142882006
C        1.9514688516   -0.9557128419   -0.1360816908
C        3.0114371713   -1.4250705113    0.6471003864
C        2.8664447572   -1.5247666222    2.0368281587
C        1.6710777304   -1.1693990617    2.6487218174
C        0.6126025115   -0.6836213860    1.8642057936
C        0.7500734827   -0.5820548129    0.4747117908
H       -0.0749028949   -0.2118173487   -0.1272480729
H       -0.3175963472   -0.3865702808    2.3416230798
C        1.5383119488   -1.2544280516    4.1318157707
O        1.4097146879   -2.2666544531    4.7662480239
O        1.5122985060   -0.0369473732    4.7172102372
H        1.4076204029   -0.2213792074    5.6616662622
H        3.6920747087   -1.8895835475    2.6426973108
H        3.9478263136   -1.7126181645    0.1774791889
15   

H        2.0487278233   -0.8846201918   -1.2172486816
C        1.9501730459   -0.9588589026   -0.1377202672
C        3.0022848452   -1.4686807726    0.6303329422
C        2.8726607065   -1.5653425127    2.0217252364
C        1.6979208442   -1.1710126480    2.6518016138
C        0.6503151133   -0.6382453361    1.8810810064
C        0.7728982907   -0.5398078150    0.4900048711
H       -0.0447280223   -0.1354380803   -0.0998975232
H       -0.2602933226   -0.3018339514    2.3702935197
C        1.5964290045   -1.2427548451    4.1339544843
O        1.7085418184   -2.2410864406    4.7950790157
O        1.2701393857   -0.0543676059    4.6902010553
H        1.2143570960   -0.2363847059    5.6393815968
H        3.6927048991   -1.9612312052    2.6159925484
H        3.9210355123   -1.7898438619    0.1478195161
15   

H        2.0333477726   -0.9131398214   -1.2227799246
C        1.9445720471   -0.9746810403   -0.1416052926
C        2.9880040062   -1.5117231124    0.6193108788
C        2.8713850995   -1.5919213787    2.0127836059
C        1.7174240984   -1.1528007744    2.6543384806
C        0.6776822024   -0.5944722879    1.8881688420
C        0.7885126318   -0.5127330156    0.4950171958
H       -0.0224202579   -0.0880500131   -0.0898369151
H       -0.2191302801   -0.2253056192    2.3794638546
C        1.6441545613   -1.2154775829    4.1344176728
O        1.9849076384   -2.1537229375    4.8074671940
O        1.0718718683   -0.1194499979    4.6837189397
H        1.0709323622   -0.2970543866    5.6354852030
H        3.6854929092   -2.0098010801    2.6006344869
H        3.8902877055   -1.8671372386    0.1297714657
15   

H        2.0177212332   -0.9530388063   -1.2296520879
C        1.9381289657   -0.9963334594   -0.1468787615
C        2.9725888060   -1.5530640445    0.6115626582
C        2.8683765349   -1.6096800419    2.0070876944
C        1.7361895746   -1.1234446828    2.6558132027
C        0.7023967717   -0.5507023890    1.8890972842
C        0.8022457415   -0.4928427329    0.4939287210
H       -0.0027086589   -0.0551401748   -0.0896010690
H       -0.1835736132   -0.1515398482    2.3766153926
C        1.6838699788   -1.1792633719    4.1339537702
O        2.2303402313   -2.0124054923    4.8120087637
O        0.9059702415   -0.2185100103    4.6851730676
H        0.9569413598   -0.3829529917    5.6380315319
H        3.6777040504   -2.0441233680    2.5899184134
H        3.8587784444   -1.9425879059    0.1185776919
15   

H        1.9967623138   -0.9985489311   -1.2355066832
C        1.9271955269   -1.0218995099   -0.1514282985
C        2.9532646161   -1.5945606546    0.6058808589
C        2.8626774277   -1.6251127168    2.0031200482
C        1.7537231703   -1.0925346466    2.6572694761
C        0.7245634116   -0.5100198876    1.8889142370
C        0.8119451290   -0.4783035237    0.4920856273
H        0.0122837933   -0.0302808008   -0.0909041395
H       -0.1498630392   -0.0810761216    2.3718313277
C        1.7167859944   -1.1395533839    4.1348693982
O        2.4373567390   -1.8226228019    4.8195694351
O        0.7649297452   -0.3497088475    4.6851517769
H        0.8588265740   -0.4875784276    5.6390245964
H        3.6683852976   -2.0734524683    2.5805920115
H        3.8229864739   -2.0170558481    0.1107122870
15   

H        1.9716837497   -1.0475019613   -1.2388639975
C        1.9132133170   -1.0499015628   -0.1538816196
C        2.9316319497   -1.6363232085    0.6029275415
C        2.8559176633   -1.6392787990    2.0013721641
C        1.7711758701   -1.0614683951    2.6583320889
C        0.7462428175   -0.4710202066    1.8892632686
C        0.8193502168   -0.4666599824    0.4912754762
H        0.0247346455   -0.0093775572   -0.0914311555
H       -0.1134980204   -0.0118417007    2.3706635520
C        1.7452535820   -1.0947464362    4.1362315885
O        2.6010901807   -1.5895811598    4.8276185173
O        0.6531705546   -0.5093032297    4.6816360790
H        0.7779856809   -0.6089903910    5.6367401840
H        3.6566943301   -2.0997823710    2.5761517960
H        3.7841533518   -2.0910886909    0.1064277888
15   

H        1.9428082638   -1.0963257847   -1.2386207515
C        1.8962408386   -1.0779958161   -0.1532147332
C        2.9074102079   -1.6776607386    0.6032335716
C        2.8472829559   -1.6530115717    2.0022310415
C        1.7877701653   -1.0308317694    2.6592356365
C        0.7669195857   -0.4332572819    1.8913605392
C        0.8243410473   -0.4558361112    0.4928024695
H        0.0346414009    0.0102411576   -0.0896115853
H       -0.0752428412    0.0541585402    2.3761404338
C        1.7680236527   -1.0466950957    4.1378279895
O        2.7114770644   -1.3258307833    4.8353945750
O        0.5776520813   -0.6891142164    4.6743416052
H        0.7186139653   -0.7416865235    5.6309313247
H        3.6406253123   -2.1237621732    2.5789886537
H        3.7419410938   -2.1639323296    0.1060330524
15   

H        1.9153642084   -1.1385413211   -1.2355604811
C        1.8803415159   -1.1010622404   -0.1502143776
C        2.8824904928   -1.7163502996    0.6063617923
C        2.8371716160   -1.6662333475    2.0052864486
C        1.8045831785   -0.9994947031    2.6597614547
C        0.7894776716   -0.3928851074    1.8941243204
C        0.8314074963   -0.4399926302    0.4956123804
H        0.0476224372    0.0360755227   -0.0866952953
H       -0.0337932317    0.1199083471    2.3852618351
C        1.7840533419   -0.9976994261    4.1397371598
O        2.7616547916   -1.0494982360    4.8426783265
O        0.5419985646   -0.8781399592    4.6641637124
H        0.6825483904   -0.8802389375    5.6221930137
H        3.6205536813   -2.1476980329    2.5866193739
H        3.6978777210   -2.2341901176    0.1092896841
15   

H        1.8897881935   -1.1733113932   -1.2310666889
C        1.8653332702   -1.1182842099   -0.1461791347
C        2.8555593714   -1.7517523641    0.6116652639
C        2.8236111673   -1.6785019759    2.0100256110
C        1.8194261163   -0.9679417384    2.6602269800
C        0.8133162317   -0.3486610598    1.8959990786
C        0.8408644820   -0.4178536837    0.4980399599
H        0.0649310654    0.0702597871   -0.0847933863
H        0.0095154195    0.1890713594    2.3926634993
C        1.7934632355   -0.9448832003    4.1430370010
O        2.7502839752   -0.7666230362    4.8516483970
O        0.5468174250   -1.0710114321    4.6534111175
H        0.6708248165   -1.0221736050    5.6123898753
H        3.5954068217   -2.1730649646    2.5954336226
H        3.6506066527   -2.3015118836    0.1159352906
15   

H        1.8737384950   -1.2017561522   -1.2273500672
C        1.8548434195   -1.1316266241   -0.1432232968
C        2.8264982710   -1.7872614428    0.6201855915
C        2.8015836751   -1.6941567534    2.0176222523
C        1.8244835839   -0.9416422295    2.6591073548
C        0.8359082918   -0.3018934489    1.8917942054
C        0.8555564055   -0.3900063335    0.4947761484
H        0.0933592036    0.1148181943   -0.0919266080
H        0.0524915010    0.2650288446    2.3883488095
C        1.7910699962   -0.8900048866    4.1451899715
O        2.6770102737   -0.4859195492    4.8509845332
O        0.5974143611   -1.2735545465    4.6513670957
H        0.6959587649   -1.1758828263    5.6094562486
H        3.5577840849   -2.2057502141    2.6082042042
H        3.6011891706   -2.3695057173    0.1293563539
15   

H        1.8759931383   -1.2160241816   -1.2250214343
C        1.8528316650   -1.1344748571   -0.1417755535
C        2.7940651794   -1.8190168235    0.6345525796
C        2.7635605273   -1.7112254378    2.0308891714
C        1.8088804705   -0.9196584023    2.6566764989
C        0.8545991629   -0.2450490253    1.8781750287
C        0.8795031554   -0.3474888130    0.4821830903
H        0.1425621568    0.1822961253   -0.1146949202
H        0.0943198924    0.3599492441    2.3654009179
C        1.7699864762   -0.8345619914    4.1451889787
O        2.5399579867   -0.2183024690    4.8314923067
O        0.7111676312   -1.4888449998    4.6709636325
H        0.7857915767   -1.3483253414    5.6257700453
H        3.4961627068   -2.2446375439    2.6313883050
H        3.5494037501   -2.4346843859    0.1544802488
15   

H        1.9106467497   -1.2132793405   -1.2245241124
C        1.8684756101   -1.1259015127   -0.1423056446
C        2.7633789879   -1.8466280959    0.6560121783
C        2.7082077333   -1.7317931572    2.0510529156
C        1.7676188039   -0.9061614372    2.6526979286
C        0.8706340544   -0.1813076344    1.8528038291
C        0.9201933076   -0.2911091397    0.4579934340
H        0.2238370910    0.2723223918   -0.1565537009
H        0.1363161809    0.4686380376    2.3215827013
C        1.7235761227   -0.7864501195    4.1403386036
O        2.3327034541    0.0170083868    4.7929140153
O        0.9060196556   -1.6989718472    4.7090253206
H        0.9623961935   -1.5211176635    5.6587941723
H        3.4062956094   -2.2911160190    2.6686159187
H        3.5024429029   -2.4949346383    0.1939343618
15   

H        1.9514620736   -1.2012018827   -1.2237355199
C        1.8846863738   -1.1143250252   -0.1427154990
C        2.7255932898   -1.8757524977    0.6763716187
C        2.6387882206   -1.7617532588    2.0698602660
C        1.7112776663   -0.9050374246    2.6491887030
C        0.8813248273   -0.1260210422    1.8284328706
C        0.9626041290   -0.2353277834    0.4350646535
H        0.3135548684    0.3652770432   -0.1958568534
H        0.1751459728    0.5660285235    2.2801699016
C        1.6627576143   -0.7599503163    4.1322825295
O        2.0749834754    0.1840236460    4.7509227253
O        1.1553144063   -1.8515668469    4.7458418267
H        1.1932880348   -1.6419974093    5.6900963354
H        3.2972782090   -2.3501740246    2.7037193316
H        3.4482928035   -2.5539657302    0.2316801026
15   

H        1.9884326602   -1.1981722035   -1.2223636289
C        1.8991832726   -1.1130902739   -0.1428246053
C        2.6940529758   -1.9055306393    0.6924233739
C        2.5786730363   -1.7936296870    2.0840381168
C        1.6632396550   -0.9118325715    2.6466059170
C        0.8864727103   -0.0964223725    1.8086642965
C        0.9963932707   -0.2033946300    0.4171691263
H        0.3858298369    0.4242340528   -0.2257663578
H        0.1995306979    0.6232955592    2.2471974994
C        1.5962129775   -0.7529458054    4.1231748595
O        1.7812220763    0.2768979128    4.7161909590
O        1.3883497905   -1.9219453415    4.7700384713
H        1.3883604889   -1.6850309448    5.7086952149
H        3.2045958944   -2.4055551972    2.7287741978
H        3.4041912738   -2.6057748186    0.2618732841
15   

H        2.0149213044   -1.1944449946   -1.2224271526
C        1.9110576571   -1.1123896777   -0.1439611474
C        2.6681553725   -1.9321837398    0.6994087030
C        2.5343863698   -1.8244260447    2.0897928548
C        1.6372779206   -0.9181442789    2.6452156359
C        0.8985684588   -0.0769154853    1.7970060165
C        1.0272049910   -0.1795220683    0.4069582911
H        0.4454533062    0.4694411885   -0.2415043397
H        0.2252664317    0.6605116518    2.2278621814
C        1.5411089085   -0.7595789055    4.1160822823
O        1.4896697931    0.2955813614    4.6937461185
O        1.5887201828   -1.9344694764    4.7856600814
H        1.5333021274   -1.6844647759    5.7193981111
H        3.1353325222   -2.4599886719    2.7355671657
H        3.3639639141   -2.6510318120    0.2761765380
15   

H        2.0401899813   -1.1866240576   -1.2236677534
C        1.9256876675   -1.1083729698   -0.1459963609
C        2.6489146458   -1.9537308617    0.7011561709
C        2.5017305012   -1.8517560583    2.0907516065
C        1.6270662862   -0.9213713044    2.6441669162
C        0.9177629747   -0.0597453649    1.7893951125
C        1.0602871834   -0.1566561952    0.4005041558
H        0.5019660929    0.5104017522   -0.2502089219
H        0.2537795963    0.6897796977    2.2143290661
C        1.4956755607   -0.7734985858    4.1107632085
O        1.2113619973    0.2520745689    4.6764041840
O        1.7686384179   -1.9065735264    4.7996562653
H        1.6501561112   -1.6594205989    5.7283707766
H        3.0806738818   -2.5125344196    2.7312363296
H        3.3291000280   -2.6893842427    0.2814014243
15   

H        2.0648544517   -1.1740148501   -1.2244986674
C        1.9406966165   -1.1009785319   -0.1475290569
C        2.6308886523   -1.9717997277    0.7007446763
C        2.4713793375   -1.8776009104    2.0896492677
C        1.6211153547   -0.9241296484    2.6435138879
C        0.9377948012   -0.0436269942    1.7850006938
C        1.0931443819   -0.1330638773    0.3971583319
H        0.5565607532    0.5511371943   -0.2540570517
H        0.2815443137    0.7154853686    2.2051758545
C        1.4546566499   -0.7934309211    4.1070616868
O        0.9511186087    0.1524007142    4.6606327138
O        1.9392711711   -1.8416860785    4.8143198174
H        1.7607421138   -1.6121339065    5.7380081150
H        3.0265239787   -2.5652977560    2.7226372356
H        3.2946140946   -2.7230498086    0.2822451871
15   

H        2.0869134281   -1.1573567566   -1.2238971926
C        1.9531978631   -1.0915837187   -0.1476030369
C        2.6109762928   -1.9883130976    0.6991181636
C        2.4389648236   -1.9040534453    2.0872114912
C        1.6135344168   -0.9298471498    2.6431869150
C        0.9544077654   -0.0303193424    1.7846256653
C        1.1225172048   -0.1098426351    0.3977283225
H        0.6071071491    0.5915444337   -0.2523109569
H        0.3061436807    0.7364525457    2.2033544934
C        1.4158270656   -0.8205743991    4.1043664813
O        0.7150869652    0.0001981621    4.6434598662
O        2.0995468576   -1.7382239283    4.8286323119
H        1.8698879198   -1.5386220366    5.7479960454
H        2.9660070431   -2.6178585386    2.7151962424
H        3.2580459006   -2.7535749565    0.2799109523
